# CHNOSZ+ModelSEED_2022-10-21_mod
# Data source:
# Florián, J., and A. Warshel. "ChemSol, version 2.1." University of Southern California, Los Angeles (1999).
# Bard, A. J., Parsons, R., Jordan, J. (editors), Standard potentials in aqueous solution, Marcel Dekker, New York 1985.
# Dick, J. M., CHNOSZ: Thermodynamic calculations and diagrams for geochemistry, Frontiers in Earth Science, 7 (2019) 180.
# Kobayashi, K., Suzuki T.S, Electron Comm Jpn. 2019;102:12–16.
# Shkol’nikov, E.V., Russian Journal of Physical Chemistry A 90(3) 2016.
# Henry, C.S., DeJongh, M., Best, A.B., Frybarger, P.M., Linsay, B., R.L. Stevens, High-throughput Generation and Optimization of Genome-scale Metabolic Models, Nature Biotechnology (2010).

LLNL_AQUEOUS_MODEL_PARAMETERS
-temperatures
        -298.14   -200.00   -150.00  -100.000
         0.0100   25.0000   60.0000  100.0000
       150.0000  200.0000  250.0000  300.0000
       500.0000 1000.0000 2500.0000 5000.0000 #debye huckel a (adh)
-dh_a
         0    0    0    0
         0    0    0    0
         0    0    0    0
         0    0    0    0 #debye huckel b (bdh)
-dh_b
         0    0    0    0
         0    0    0    0
         0    0    0    0
         0    0    0    0
-bdot
         0    0    0    0
         0    0    0    0
         0    0    0    0
         0    0    0    0 #cco2   (coefficients for the Drummond (1981) polynomial)
-co2_coefs
        0              0
          0                0
      0
      #kdyztak pak zmenit
SOLUTION_MASTER_SPECIES # Necessary block: E, Cat and O
E	e-	0	0	0
 # Inorganics
[H]	[H]	0	[H]	1.00797
H	H+		-1.     1.008           1.008
H(0)	H2		0.0     1.008
H(1)	H+		-1.     1.008 # [H]	[H]+		-1.     1.008           1.008 # [H](0)	[H]2		0.0     1.008 # [H](1)	[H]+		-1.     1.008
D	D	0	D	2.014102
T	T	0	T	3.016049

He	He	0	He	4.0026
Ne	Ne	0	Ne	20.183
Ar	Ar	0	Ar	39.948
Kr	Kr	0	Kr	83.8
Xe	Xe	0	Xe	131.3
Rn	Rn	0	Rn	222

[F]	[F]	0	[F]	18.9984
Cl	Cl	0	Cl	35.453
Br	Br	0	Br	79.909
I	I	0	I	126.904

[O]	[O]	0	[O]	15.9994
O	H2O		0.0     16.00           16.00
O(-2)	H2O		0.0     18.016
O(0)	O2		0.0     16.00 # [O]	[H]2[O]		0.0     16.00           16.00 # [O](-2)	[H]2[O]		0.0     18.016 # [O](0)	[O]2		0.0     16.00
[S]	[S]	0	[S]	32.064
Se	Se	0	Se	78.96
Te	Te	0	Te	127.6
Po	Po	0	Po	209

[N]	[N]	0	[N]	14.0067
P	P	0	P	30.9738
As	As	0	As	74.922
Sb	Sb	0	Sb	121.75
Bi	Bi	0	Bi	208.98

[C]	[C]	0	[C]	12.01111
Si	Si	0	Si	28.068
Ge	Ge	0	Ge	72.59
Sn	Sn	0	Sn	118.69
Pb	Pb	0	Pb	207.19

B	B	0	B	10.811
Al	Al	0	Al	26.9815
Ga	Ga	0	Ga	69.72
In	In	0	In	114.82
Tl	Tl	0	Tl	204.37

Be	Be	0	Be	9.0122
Mg	Mg	0	Mg	24.312
Ca	Ca	0	Ca	40.08
Sr	Sr	0	Sr	87.32
Ba	Ba	0	Ba	137.34
Ra	Ra	0	Ra	226

Li	Li	0	Li	6.939
Na	Na	0	Na	22.9898
K	K	0	K	39.102
Rb	Rb	0	Rb	85.47
Cs	Cs	0	Cs	132.905
Fr	Fr	0	Fr	223

Sc	Sc	0	Sc	44.956
Ti	Ti	0	Ti	47.9
V	V	0	V	50.942
Cr	Cr	0	Cr	51.996
Mn	Mn	0	Mn	54.938
Fe	Fe	0	Fe	55.847
Co	Co	0	Co	58.933
Ni	Ni	0	Ni	58.71
Cu	Cu	0	Cu	63.54
Zn	Zn	0	Zn	65.37

Y	Y	0	Y	88.905
Zr	Zr	0	Zr	91.22
Nb	Nb	0	Nb	92.906
Mo	Mo	0	Mo	95.94
Tc	Tc	0	Tc	98
Ru	Ru	0	Ru	101.07
Rh	Rh	0	Rh	102.905
Pd	Pd	0	Pd	106.3
Ag	Ag	0	Ag	107.87
Cd	Cd	0	Cd	112.4

La	La	0	La	138.91
Hf	Hf	0	Hf	178.49
Ta	Ta	0	Ta	180.948
W	W	0	W	183.85
Re	Re	0	Re	186.2
Os	Os	0	Os	190.2
Ir	Ir	0	Ir	192.2
Pt	Pt	0	Pt	195.09
Au	Au	0	Au	196.967
Hg	Hg	0	Hg	200.59

Ce	Ce	0	Ce	140.12
Pr	Pr	0	Pr	140.907
Nd	Nd	0	Nd	144.24
Pm	Pm	0	Pm	144.24
Sm	Sm	0	Sm	150.35
Eu	Eu	0	Eu	151.96
Gd	Gd	0	Gd	157.25
Tb	Tb	0	Tb	158.924
Dy	Dy	0	Dy	162.5
Ho	Ho	0	Ho	164.93
Er	Er	0	Er	167.26
Tm	Tm	0	Tm	168.934
Yb	Yb	0	Yb	173.04
Lu	Lu	0	Lu	174.97

Ac	Ac	0	Ac	232.038
Th	Th	0	Th	232.038
Pa	Pa	0	Pa	231
U	U	0	U	238.03
Np	Np	0	Np	237
Pu	Pu	0	Pu	244
Am	Am	0	Am	243
Cm	Cm	0	Cm	247
Bk	Bk	0	Bk	247
 # dummy:
M	M	0	M	1
X	X	0	X	1

SOLUTION_SPECIES # nutne rovnovahy
 #O2 secondary master species
        2H2O = O2 + 4H+ + 4e- 
        log_k           -86.08
        delta_h 134.79 kcal
 #H2 secondary master species
        2 H+ + 2 e- = H2
        log_k           -3.15
        delta_h -1.759 kcal
 #O2 secondary master species #        2[H]2[O] = [O]2 + 4[H]+ + 4e-  #        log_k           -86.08 #        delta_h 134.79 kcal
 #H2 secondary master species #        2 [H]+ + 2 e- = [H]2 #        log_k           -3.15 #        delta_h -1.759 kcal

M = M
log_k 0
X = X
log_k 0

M = M+ + e-
log_k 100
X + e- = X-
log_k 100

e- = e-
log_k 0

[H] = [H]
log_k 0

H+ = H+
log_k 0
 # [H]+ = [H]+ # log_k 0

H2O = H2O
log_k 0
 # [H]2[O] = [H]2[O] # log_k 0 # -activity_water

H2O = OH- + H+
log_k -13.997
 # [H]2[O] = [O][H]- + [H]+ # log_k -13.997

[O] = [O]
log_k 0

0.5 O2 = O ; log_k	-41.3 ; delta_h	250.3

0.5 H2 = H			 ; log_k	-36.3	 ; delta_h	219.1
 # 0.5 [O]2 = [O]
	# log_k	-41.3
	# delta_h	250.3
 # 0.5 [H]2 = [H]			
	# log_k	-36.3	
	# delta_h	219.1
 # [H]2[O] + 0.01 e- = [H]2[O]-0.01 # log_k -9
	
D = D ; log_k	0.00

T = T ; log_k	0.00



He = He ; log_k	0.00
Ne = Ne ; log_k	0.00
Ar = Ar ; log_k	0.00
Kr = Kr ; log_k	0.00
Xe = Xe ; log_k	0.00
Rn = Rn ; log_k	0.00
[F] = [F] ; log_k	0.00
Cl = Cl ; log_k	0.00
Br = Br ; log_k	0.00
I = I ; log_k	0.00
[S] = [S] ; log_k	0.00
Se = Se ; log_k	0.00
Te = Te ; log_k	0.00
Po = Po ; log_k	0.00
[N] = [N] ; log_k	0.00
P = P ; log_k	0.00
As = As ; log_k	0.00
Sb = Sb ; log_k	0.00
Bi = Bi ; log_k	0.00
[C] = [C] ; log_k	0.00
Si = Si ; log_k	0.00
Ge = Ge ; log_k	0.00
Sn = Sn ; log_k	0.00
Pb = Pb ; log_k	0.00
B = B ; log_k	0.00
Al = Al ; log_k	0.00
Ga = Ga ; log_k	0.00
In = In ; log_k	0.00
Tl = Tl ; log_k	0.00
Be = Be ; log_k	0.00
Mg = Mg ; log_k	0.00
Ca = Ca ; log_k	0.00
Sr = Sr ; log_k	0.00
Ba = Ba ; log_k	0.00
Ra = Ra ; log_k	0.00
Li = Li ; log_k	0.00
Na = Na ; log_k	0.00
K = K ; log_k	0.00
Rb = Rb ; log_k	0.00
Cs = Cs ; log_k	0.00
Fr = Fr ; log_k	0.00
Sc = Sc ; log_k	0.00
Ti = Ti ; log_k	0.00
V = V ; log_k	0.00
Cr = Cr ; log_k	0.00
Mn = Mn ; log_k	0.00
Fe = Fe ; log_k	0.00
Co = Co ; log_k	0.00
Ni = Ni ; log_k	0.00
Cu = Cu ; log_k	0.00
Zn = Zn ; log_k	0.00
Y = Y ; log_k	0.00
Zr = Zr ; log_k	0.00
Nb = Nb ; log_k	0.00
Mo = Mo ; log_k	0.00
Tc = Tc ; log_k	0.00
Ru = Ru ; log_k	0.00
Rh = Rh ; log_k	0.00
Pd = Pd ; log_k	0.00
Ag = Ag ; log_k	0.00
Cd = Cd ; log_k	0.00
La = La ; log_k	0.00
Hf = Hf ; log_k	0.00
Ta = Ta ; log_k	0.00
W = W ; log_k	0.00
Re = Re ; log_k	0.00
Os = Os ; log_k	0.00
Ir = Ir ; log_k	0.00
Pt = Pt ; log_k	0.00
Au = Au ; log_k	0.00
Hg = Hg ; log_k	0.00
Ce = Ce ; log_k	0.00
Pr = Pr ; log_k	0.00
Nd = Nd ; log_k	0.00
Sm = Sm ; log_k	0.00
Pm = Pm ; log_k	0.00
Eu = Eu ; log_k	0.00
Gd = Gd ; log_k	0.00
Tb = Tb ; log_k	0.00
Dy = Dy ; log_k	0.00
Ho = Ho ; log_k	0.00
Er = Er ; log_k	0.00
Tm = Tm ; log_k	0.00
Yb = Yb ; log_k	0.00
Lu = Lu ; log_k	0.00
Ac = Ac ; log_k	0.00
Th = Th ; log_k	0.00
Pa = Pa ; log_k	0.00
U = U ; log_k	0.00
Np = Np ; log_k	0.00
Pu = Pu ; log_k	0.00
Am = Am ; log_k	0.00
Cm = Cm ; log_k	0.00
Bk = Bk ; log_k	0.00

PHASES # names of elements have to match exactly the definitions, i.e. including the square brackets!!!
[H](g) ; [H] = [H] ; log_k	-2.44 ; delta_h	1.58 ; #H°f = 217.965 kJ.mol-1 (Bard) ; #S° = 114.71 J.K-1.mol-1 (Bard) #H(g)
D(g) ; D = D ; log_k	-2.44 ; delta_h	1.58 ; #H°f = 221.673 kJ.mol-1 (Bard) ; #S° = 123.35 J.K-1.mol-1 (Bard) #D(g)
[O](g) ; [O] = [O] ; log_k	-3.45 ; delta_h	-2.27 ; #H°f = 249.17 kJ.mol-1 (Bard) ; #S° = 160.95 J.K-1.mol-1 (Bard) #O(g)
[F](g) ; [F] = [F] ; log_k	-2.67 ; delta_h	-7.46 ; #H°f = 78.91 kJ.mol-1 (Bard) ; #S° = 158.64 J.K-1.mol-1 (Bard) #F(g)
Cl(g) ; Cl = Cl ; log_k	-2.80 ; delta_h	-12.44 ; #H°f = 121.679 kJ.mol-1 (Bard) ; #S° = 165.09 J.K-1.mol-1 (Bard) #Cl(g)
Br(g) ; Br = Br ; log_k	-2.85 ; delta_h	-14.24 ; #H°f = 111.884 kJ.mol-1 (Bard) ; #S° = 174.91 J.K-1.mol-1 (Bard) #Br(g)
I(g) ; I = I ; log_k	-2.93 ; delta_h	-17.33 ; #H°f = 106.62 kJ.mol-1 (Bard) ; #S° = 180.68 J.K-1.mol-1 (Bard) #I(g)
[S](g) ; [S] = [S] ; log_k	-2.81 ; delta_h	-12.77 ; #H°f = 278.81 kJ.mol-1 (Bard) ; #S° = 167.71 J.K-1.mol-1 (Bard) #S(g)
Se(g) ; Se = Se ; log_k	-2.77 ; delta_h	-11.39 ; #H°f = 227.07 kJ.mol-1 (Bard) ; #S° = 176.58 J.K-1.mol-1 (Bard) #Se(g)
Te(g) ; Te = Te ; log_k	-2.91 ; delta_h	-16.50 ; #H°f = 196.73 kJ.mol-1 (Bard) ; #S° = 182.63 J.K-1.mol-1 (Bard) #Te(g)
Po(g) ; Po = Po ; log_k	-2.77 ; delta_h	-11.39 ; #H°f = 146.988 kJ.mol-1 (Bard) ; #S° = 188.81 J.K-1.mol-1 (Bard) #Po(g)
[N](g) ; [N] = [N] ; log_k	-3.67 ; delta_h	-3.23 ; #H°f = 472.704 kJ.mol-1 (Bard) ; #S° = 153.20 J.K-1.mol-1 (Bard) #N(g)
P(g) ; P = P ; log_k	-2.81 ; delta_h	-12.77 ; #H°f = 314.25 kJ.mol-1 (Bard) ; #S° = 162.93 J.K-1.mol-1 (Bard) #P(g)
As(g) ; As = As ; log_k	-2.77 ; delta_h	-11.39 ; #H°f = 302.5 kJ.mol-1 (Bard) ; #S° = 174.10 J.K-1.mol-1 (Bard) #As(g)
Sb(g) ; Sb = Sb ; log_k	-2.77 ; delta_h	-11.39 ; #H°f = 262.3 kJ.mol-1 (Bard) ; #S° = 180.16 J.K-1.mol-1 (Bard) #Sb(g)
Bi(g) ; Bi = Bi ; log_k	-2.77 ; delta_h	-11.39 ; #H°f = 207.1 kJ.mol-1 (Bard) ; #S° = 186.90 J.K-1.mol-1 (Bard) #Bi(g)
[C](g) ; [C] = [C] ; log_k	-2.71 ; delta_h	-8.71 ; #H°f = 718.384 kJ.mol-1 (Bard) ; #S° = 157.99 J.K-1.mol-1 (Bard) #C(g)
Si(g) ; Si = Si ; log_k	-2.80 ; delta_h	-12.02 ; #H°f = 368.4 kJ.mol-1 (Bard) ; #S° = 167.90 J.K-1.mol-1 (Bard) #Si(g)
Ge(g) ; Ge = Ge ; log_k	-2.68 ; delta_h	-7.71 ; #H°f = 328.19 kJ.mol-1 (Bard) ; #S° = 167.80 J.K-1.mol-1 (Bard) #Ge(g)
Sn(g) ; Sn = Sn ; log_k	-2.67 ; delta_h	-7.42 ; #H°f = 301 kJ.mol-1 (Bard) ; #S° = 168.39 J.K-1.mol-1 (Bard) #Sn(g)
Pb(g) ; Pb = Pb ; log_k	-2.69 ; delta_h	-8.04 ; #H°f = 193.9 kJ.mol-1 (Bard) ; #S° = 175.27 J.K-1.mol-1 (Bard) #Pb(g)
Ga(g) ; Ga = Ga ; log_k	-2.61 ; delta_h	-5.20 ; #H°f = 277 kJ.mol-1 (Bard) ; #S° = 169.00 J.K-1.mol-1 (Bard) #Ga(g)
In(g) ; In = In ; log_k	-2.67 ; delta_h	-7.42 ; #H°f = 243.3 kJ.mol-1 (Bard) ; #S° = 173.70 J.K-1.mol-1 (Bard) #In(g)
Tl(g) ; Tl = Tl ; log_k	-2.61 ; delta_h	-5.20 ; #H°f = 182.2 kJ.mol-1 (Bard) ; #S° = 180.85 J.K-1.mol-1 (Bard) #Tl(g)
Zn(g) ; Zn = Zn ; log_k	-2.55 ; delta_h	-2.77 ; #H°f = 130.73 kJ.mol-1 (Bard) ; #S° = 160.88 J.K-1.mol-1 (Bard) #Zn(g)
Cd(g) ; Cd = Cd ; log_k	-2.61 ; delta_h	-5.03 ; #H°f = 112.01 kJ.mol-1 (Bard) ; #S° = 167.75 J.K-1.mol-1 (Bard) #Cd(g)
Hg(g) ; Hg = Hg ; log_k	-2.60 ; delta_h	-4.86 ; #H°f = 61.317 kJ.mol-1 (Bard) ; #S° = 174.85 J.K-1.mol-1 (Bard) #Hg(g)
Cu(g) ; Cu = Cu ; log_k	-2.60 ; delta_h	-4.49 ; #H°f = 338 kJ.mol-1 (Bard) ; #S° = 166.52 J.K-1.mol-1 (Bard) #Cu(g)
Ag(g) ; Ag = Ag ; log_k	-2.64 ; delta_h	-6.37 ; #H°f = 284.69 kJ.mol-1 (Bard) ; #S° = 172.97 J.K-1.mol-1 (Bard) #Ag(g)
Au(g) ; Au = Au ; log_k	-2.58 ; delta_h	-3.94 ; #H°f = 366 kJ.mol-1 (Bard) ; #S° = 180.39 J.K-1.mol-1 (Bard) #Au(g)
Ni(g) ; Ni = Ni ; log_k	-2.54 ; delta_h	-2.61 ; #H°f = 425.14 kJ.mol-1 (Bard) ; #S° = 182.39 J.K-1.mol-1 (Bard) #Ni(g)
Pd(g) ; Pd = Pd ; log_k	-2.61 ; delta_h	-5.20 ; #H°f = 378.2 kJ.mol-1 (Bard) ; #S° = 167.05 J.K-1.mol-1 (Bard) #Pd(g)
Pt(g) ; Pt = Pt ; log_k	-2.77 ; delta_h	-11.39 ; #H°f = 565.3 kJ.mol-1 (Bard) ; #S° = 192.41 J.K-1.mol-1 (Bard) #Pt(g)
Co(g) ; Co = Co ; log_k	-2.55 ; delta_h	-2.90 ; #H°f = 439 kJ.mol-1 (Bard) ; #S° = 179.41 J.K-1.mol-1 (Bard) #Co(g)
Rh(g) ; Rh = Rh ; log_k	-2.61 ; delta_h	-5.20 ; #H°f = 556.9 kJ.mol-1 (Bard) ; #S° = 185.81 J.K-1.mol-1 (Bard) #Rh(g)
Ir(g) ; Ir = Ir ; log_k	-2.77 ; delta_h	-11.39 ; #H°f = 665.3 kJ.mol-1 (Bard) ; #S° = 193.58 J.K-1.mol-1 (Bard) #Ir(g)
Fe(g) ; Fe = Fe ; log_k	-2.58 ; delta_h	-4.28 ; #H°f = 416.3 kJ.mol-1 (Bard) ; #S° = 180.38 J.K-1.mol-1 (Bard) #Fe(g)
Ru(g) ; Ru = Ru ; log_k	-2.61 ; delta_h	-5.20 ; #H°f = 642.7 kJ.mol-1 (Bard) ; #S° = 186.51 J.K-1.mol-1 (Bard) #Ru(g)
Os(g) ; Os = Os ; log_k	-2.77 ; delta_h	-11.39 ; #H°f = 791 kJ.mol-1 (Bard) ; #S° = 192.57 J.K-1.mol-1 (Bard) #Os(g)
Mn(g) ; Mn = Mn ; log_k	-2.60 ; delta_h	-4.82 ; #H°f = 280.7 kJ.mol-1 (Bard) ; #S° = 173.70 J.K-1.mol-1 (Bard) #Mn(g)
Tc(g) ; Tc = Tc ; log_k	-2.61 ; delta_h	-5.20 ; #H°f = 38.7 kJ.mol-1 (Bard) ; #S° = 10.30 J.K-1.mol-1 (Bard) #Tc(g)
Re(g) ; Re = Re ; log_k	-2.77 ; delta_h	-11.39 ; #H°f = 769.9 kJ.mol-1 (Bard) ; #S° = 188.83 J.K-1.mol-1 (Bard) #Re(g)
Cr(g) ; Cr = Cr ; log_k	-2.60 ; delta_h	-4.57 ; #H°f = 397.5 kJ.mol-1 (Bard) ; #S° = 174.39 J.K-1.mol-1 (Bard) #Cr(g)
Mo(g) ; Mo = Mo ; log_k	-2.61 ; delta_h	-5.20 ; #H°f = 658.1 kJ.mol-1 (Bard) ; #S° = 181.95 J.K-1.mol-1 (Bard) #Mo(g)
W(g) ; W = W ; log_k	-2.77 ; delta_h	-11.39 ; #H°f = 856.883 kJ.mol-1 (Bard) ; #S° = 173.84 J.K-1.mol-1 (Bard) #W(g)
V(g) ; V = V ; log_k	-2.60 ; delta_h	-4.70 ; #H°f = 515.5 kJ.mol-1 (Bard) ; #S° = 182.20 J.K-1.mol-1 (Bard) #V(g)
Nb(g) ; Nb = Nb ; log_k	-2.61 ; delta_h	-5.20 ; #H°f = 725.9 kJ.mol-1 (Bard) ; #S° = 186.26 J.K-1.mol-1 (Bard) #Nb(g)
Ta(g) ; Ta = Ta ; log_k	-2.77 ; delta_h	-11.39 ; #H°f = 782 kJ.mol-1 (Bard) ; #S° = 185.21 J.K-1.mol-1 (Bard) #Ta(g)
Ti(g) ; Ti = Ti ; log_k	-2.61 ; delta_h	-5.20 ; #H°f = 397.5 kJ.mol-1 (Bard) ; #S° = 180.20 J.K-1.mol-1 (Bard) #Ti(g)
Zr(g) ; Zr = Zr ; log_k	-2.61 ; delta_h	-5.20 ; #H°f = 608.8 kJ.mol-1 (Bard) ; #S° = 181.36 J.K-1.mol-1 (Bard) #Zr(g)
Hf(g) ; Hf = Hf ; log_k	-2.77 ; delta_h	-11.39 ; #H°f = 619.2 kJ.mol-1 (Bard) ; #S° = 186.99 J.K-1.mol-1 (Bard) #Hf(g)
Sc(g) ; Sc = Sc ; log_k	-2.54 ; delta_h	-2.61 ; #H°f = 381.2 kJ.mol-1 (Bard) ; #S° = 174.68 J.K-1.mol-1 (Bard) #Sc(g)
Y(g) ; Y = Y ; log_k	-2.58 ; delta_h	-3.82 ; #H°f = 421.3 kJ.mol-1 (Bard) ; #S° = 179.48 J.K-1.mol-1 (Bard) #Y(g)
La(g) ; La = La ; log_k	-2.66 ; delta_h	-6.66 ; #H°f = 431 kJ.mol-1 (Bard) ; #S° = 182.38 J.K-1.mol-1 (Bard) #La(g)
Ac(g) ; Ac = Ac ; log_k	-2.77 ; delta_h	-11.39 ; #H°f = 406 kJ.mol-1 (Bard) ; #S° = 188.10 J.K-1.mol-1 (Bard) #Ac(g)
Ce(g) ; Ce = Ce ; log_k	-2.66 ; delta_h	-6.66 ; #H°f = 420.1 kJ.mol-1 (Bard) ; #S° = 191.77 J.K-1.mol-1 (Bard) #Ce(g)
Pr(g) ; Pr = Pr ; log_k	-2.66 ; delta_h	-6.66 ; #H°f = 356.9 kJ.mol-1 (Bard) ; #S° = 189.81 J.K-1.mol-1 (Bard) #Pr(g)
Nd(g) ; Nd = Nd ; log_k	-2.66 ; delta_h	-6.66 ; #H°f = 326.9 kJ.mol-1 (Bard) ; #S° = 189.41 J.K-1.mol-1 (Bard) #Nd(g)
Pm(g) ; Pm = Pm ; log_k	-2.66 ; delta_h	-6.66 ; #H°f = 318 kJ.mol-1 (Bard) ; #S° = 187.10 J.K-1.mol-1 (Bard) #Pm(g)
Sm(g) ; Sm = Sm ; log_k	-2.66 ; delta_h	-6.66 ; #H°f = 206.7 kJ.mol-1 (Bard) ; #S° = 183.04 J.K-1.mol-1 (Bard) #Sm(g)
Eu(g) ; Eu = Eu ; log_k	-2.66 ; delta_h	-6.66 ; #H°f = 177.4 kJ.mol-1 (Bard) ; #S° = 188.80 J.K-1.mol-1 (Bard) #Eu(g)
Gd(g) ; Gd = Gd ; log_k	-2.66 ; delta_h	-6.66 ; #H°f = 397.5 kJ.mol-1 (Bard) ; #S° = 194.31 J.K-1.mol-1 (Bard) #Gd(g)
Tb(g) ; Tb = Tb ; log_k	-2.66 ; delta_h	-6.66 ; #H°f = 388.7 kJ.mol-1 (Bard) ; #S° = 303.58 J.K-1.mol-1 (Bard) #Tb(g)
Dy(g) ; Dy = Dy ; log_k	-2.66 ; delta_h	-6.66 ; #H°f = 290.4 kJ.mol-1 (Bard) ; #S° = 196.63 J.K-1.mol-1 (Bard) #Dy(g)
Ho(g) ; Ho = Ho ; log_k	-2.66 ; delta_h	-6.66 ; #H°f = 300.6 kJ.mol-1 (Bard) ; #S° = 195.59 J.K-1.mol-1 (Bard) #Ho(g)
Er(g) ; Er = Er ; log_k	-2.66 ; delta_h	-6.66 ; #H°f = 311.9 kJ.mol-1 (Bard) ; #S° = 195.59 J.K-1.mol-1 (Bard) #Er(g)
Tm(g) ; Tm = Tm ; log_k	-2.66 ; delta_h	-6.66 ; #H°f = 232.2 kJ.mol-1 (Bard) ; #S° = 190.11 J.K-1.mol-1 (Bard) #Tm(g)
Yb(g) ; Yb = Yb ; log_k	-2.66 ; delta_h	-6.66 ; #H°f = 155.6 kJ.mol-1 (Bard) ; #S° = 173.13 J.K-1.mol-1 (Bard) #Yb(g)
Lu(g) ; Lu = Lu ; log_k	-2.66 ; delta_h	-6.66 ; #H°f = 427.6 kJ.mol-1 (Bard) ; #S° = 184.80 J.K-1.mol-1 (Bard) #Lu(g)
Th(g) ; Th = Th ; log_k	-2.77 ; delta_h	-11.39 ; #H°f = 597.1 kJ.mol-1 (Bard) ; #S° = 190.04 J.K-1.mol-1 (Bard) #Th(g)
Pa(g) ; Pa = Pa ; log_k	-2.77 ; delta_h	-11.39 ; #H°f = 607 kJ.mol-1 (Bard) ; #S° = 197.90 J.K-1.mol-1 (Bard) #Pa(g)
U(g) ; U = U ; log_k	-2.77 ; delta_h	-11.39 ; #H°f = 531.4 kJ.mol-1 (Bard) ; #S° = 199.70 J.K-1.mol-1 (Bard) #U(g)
Np(g) ; Np = Np ; log_k	-2.77 ; delta_h	-11.39 ; #H°f = 464.8 kJ.mol-1 (Bard) ; #S° = 117.61 J.K-1.mol-1 (Bard) #Np(g)
Pu(g) ; Pu = Pu ; log_k	-2.77 ; delta_h	-11.39 ; #H°f = 345.2 kJ.mol-1 (Bard) ; #S° = 177.10 J.K-1.mol-1 (Bard) #Pu(g)
B(g) ; B = B ; log_k	-2.66 ; delta_h	-7.21 ; #H°f = 562.7 kJ.mol-1 (Bard) ; #S° = 153.34 J.K-1.mol-1 (Bard) #B(g)
Al(g) ; Al = Al ; log_k	-2.57 ; delta_h	-3.53 ; #H°f = 329.7 kJ.mol-1 (Bard) ; #S° = 164.44 J.K-1.mol-1 (Bard) #Al(g)
Be(g) ; Be = Be ; log_k	-2.61 ; delta_h	-5.20 ; #H°f = 324.3 kJ.mol-1 (Bard) ; #S° = 136.16 J.K-1.mol-1 (Bard) #Be(g)
Mg(g) ; Mg = Mg ; log_k	-2.58 ; delta_h	-4.15 ; #H°f = 147.1 kJ.mol-1 (Bard) ; #S° = 148.59 J.K-1.mol-1 (Bard) #Mg(g)
Ca(g) ; Ca = Ca ; log_k	-2.66 ; delta_h	-7.12 ; #H°f = 178.2 kJ.mol-1 (Bard) ; #S° = 154.88 J.K-1.mol-1 (Bard) #Ca(g)
Sr(g) ; Sr = Sr ; log_k	-2.72 ; delta_h	-9.13 ; #H°f = 164.4 kJ.mol-1 (Bard) ; #S° = 164.51 J.K-1.mol-1 (Bard) #Sr(g)
Ba(g) ; Ba = Ba ; log_k	-2.76 ; delta_h	-10.76 ; #H°f = 180 kJ.mol-1 (Bard) ; #S° = 170.13 J.K-1.mol-1 (Bard) #Ba(g)
Ra(g) ; Ra = Ra ; log_k	-2.86 ; delta_h	-14.78 ; #H°f = 159 kJ.mol-1 (Bard) ; #S° = 176.36 J.K-1.mol-1 (Bard) #Ra(g)
Li(g) ; Li = Li ; log_k	-2.63 ; delta_h	-5.91 ; #H°f = 160.71 kJ.mol-1 (Bard) ; #S° = 138.67 J.K-1.mol-1 (Bard) #Li(g)
Na(g) ; Na = Na ; log_k	-2.69 ; delta_h	-8.25 ; #H°f = 107.68 kJ.mol-1 (Bard) ; #S° = 153.61 J.K-1.mol-1 (Bard) #Na(g)
K(g) ; K = K ; log_k	-2.78 ; delta_h	-11.81 ; #H°f = 89.16 kJ.mol-1 (Bard) ; #S° = 160.20 J.K-1.mol-1 (Bard) #K(g)
Rb(g) ; Rb = Rb ; log_k	-2.82 ; delta_h	-13.02 ; #H°f = 85.81 kJ.mol-1 (Bard) ; #S° = 169.99 J.K-1.mol-1 (Bard) #Rb(g)
Cs(g) ; Cs = Cs ; log_k	-2.88 ; delta_h	-15.49 ; #H°f = 78.78 kJ.mol-1 (Bard) ; #S° = 175.49 J.K-1.mol-1 (Bard) #Cs(g)
#Fr(g) ; Fr = Fr ; log_k	-2.77 ; delta_h	-11.39 ; #H°f = 0 kJ.mol-1 (Bard) ; #S° = 0.00 J.K-1.mol-1 (Bard) #Fr(g)
He(g) ; He = He ; log_k	-2.36 ; delta_h	1.16 ; #H°f = 0 kJ.mol-1 (Bard) ; #S° = 126.15 J.K-1.mol-1 (Bard) #He(g)
Ne(g) ; Ne = Ne ; log_k	-2.68 ; delta_h	-7.71 ; #H°f = 0 kJ.mol-1 (Bard) ; #S° = 146.33 J.K-1.mol-1 (Bard) #Ne(g)
Ar(g) ; Ar = Ar ; log_k	-2.74 ; delta_h	-9.89 ; #H°f = 0 kJ.mol-1 (Bard) ; #S° = 154.84 J.K-1.mol-1 (Bard) #Ar(g)
Kr(g) ; Kr = Kr ; log_k	-2.77 ; delta_h	-11.39 ; #H°f = 0 kJ.mol-1 (Bard) ; #S° = 164.98 J.K-1.mol-1 (Bard) #Kr(g)
Xe(g) ; Xe = Xe ; log_k	-2.88 ; delta_h	-15.16 ; #H°f = 0 kJ.mol-1 (Bard) ; #S° = 169.68 J.K-1.mol-1 (Bard) #Xe(g)
Rn(g) ; Rn = Rn ; log_k	-2.77 ; delta_h	-11.39 ; #H°f = 0 kJ.mol-1 (Bard) ; #S° = 176.21 J.K-1.mol-1 (Bard) #Rn(g)
Am(g) ; Am = Am ; log_k	-2.77 ; delta_h	-11.39 ; #H°f = 284.1 kJ.mol-1 (Bard) ; #S° = 194.40 J.K-1.mol-1 (Bard) #Am(g)
Cm(g) ; Cm = Cm ; log_k	-2.77 ; delta_h	-11.39 ; #H°f = 387.4 kJ.mol-1 (Bard) ; #S° = 197.00 J.K-1.mol-1 (Bard) #Cm(g)




# next phases:


methane(g)
[C][H]4 = [C](g)  + 4 [H](g)
	log_k	  -268.93 ; delta_h	    1663.35 ; #Gf°(g) =    -50.72 kJ.mol-1 (WEP+82;Kel60;OBIGT) ; #Hf°(g) =    -74.81 kJ.mol-1 (WEP+82;Kel60;OBIGT)
carbon_dioxide(g)
[C][O]2 = [C](g)  + 2 [O](g)
	log_k	  -267.90 ; delta_h	    1608.53 ; #Gf°(g) =   -394.36 kJ.mol-1 (WEP+82;Kel60;OBIGT) ; #Hf°(g) =   -393.51 kJ.mol-1 (WEP+82;Kel60;OBIGT)
hydrogen(g)
[H]2 = 2 [H](g) ; log_k	   -71.22 ; delta_h	   435.93 ; #Gf°(g) =      0.00 kJ.mol-1 (WEP+82;Kel60;OBIGT) ; #Hf°(g) =      0.00 kJ.mol-1 (WEP+82;Kel60;OBIGT)
hydrogen_sulfide(g)
[H]2[S] = 2 [H](g) + [S](g) 
	log_k	  -118.84 ; delta_h	   735.37 ; #Gf°(g) =    -33.56 kJ.mol-1 (WEP+82;Kel60;OBIGT) ; #Hf°(g) =    -20.63 kJ.mol-1 (WEP+82;Kel60;OBIGT)
nitrogen(g)
[N]2 = 2 [N](g)
	log_k	  -159.63 ; delta_h	   945.41 ; #Gf°(g) =      0.00 kJ.mol-1 (WEP+82;Kel60;OBIGT) ; #Hf°(g) =      0.00 kJ.mol-1 (WEP+82;Kel60;OBIGT)
ammonia(g)
[N][H]3 = [N](g)  + 3 [H](g)
	log_k	  -189.53 ; delta_h	    1172.71 ; #Gf°(g) =    -16.45 kJ.mol-1 (WEP+82;Kel60;OBIGT) ; #Hf°(g) =    -46.11 kJ.mol-1 (WEP+82;Kel60;OBIGT)
oxygen(g)
[O]2 = 2 [O](g) ; log_k	   -81.20 ; delta_h	   498.34 ; #Gf°(g) =      0.00 kJ.mol-1 (WEP+82;Kel60;OBIGT) ; #Hf°(g) =      0.00 kJ.mol-1 (WEP+82;Kel60;OBIGT)
sulfur(g)
[S]2 = 2 [S](g) ; log_k	   -69.59 ; delta_h	   429.24 ; #Gf°(g) =     79.30 kJ.mol-1 (WEP+82;Kel60;OBIGT) ; #Hf°(g) =    128.37 kJ.mol-1 (WEP+82;Kel60;OBIGT)
sulfur_dioxide(g)
[S][O]2 = [S](g)  + 2 [O](g)
	log_k	  -175.54 ; delta_h	    1073.97 ; #Gf°(g) =   -300.19 kJ.mol-1 (WEP+82;Kel60;OBIGT) ; #Hf°(g) =   -296.83 kJ.mol-1 (WEP+82;Kel60;OBIGT)
nitric_oxide(g)
[N][O] = [N](g)  + [O](g) 
	log_k	  -105.25 ; delta_h	   631.63 ; #Gf°(g) =     86.57 kJ.mol-1 (WEP+82;AS01;OBIGT) ; #Hf°(g) =     90.25 kJ.mol-1 (WEP+82;AS01;OBIGT)
nitrous_oxide(g)
[N]2[O] = 2 [N](g) + [O](g) 
	log_k	  -181.98 ; delta_h	    1112.53 ; #Gf°(g) =    104.19 kJ.mol-1 (WEP+82;AS01;OBIGT) ; #Hf°(g) =     82.05 kJ.mol-1 (WEP+82;AS01;OBIGT)
hydrogen_chloride(g)
[H]Cl = Cl(g) + [H](g)  ; log_k	   -70.82 ; delta_h	   431.94 ; #Gf°(g) =    -95.30 kJ.mol-1 (RH95.1;NA;OBIGT) ; #Hf°(g) =    -92.30 kJ.mol-1 (RH95.1;NA;OBIGT)
hydrogen_fluoride(g)
[H][F] = [H](g)  + [F](g)  ; log_k	   -94.71 ; delta_h	   570.26 ; #Gf°(g) =   -275.40 kJ.mol-1 (RH95.1;NA;OBIGT) ; #Hf°(g) =   -273.30 kJ.mol-1 (RH95.1;NA;OBIGT)
carbon_monoxide(g)
[C][O] = [C](g)  + [O](g) 
	log_k	  -182.24 ; delta_h	    1076.38 ; #Gf°(g) =   -137.17 kJ.mol-1 (Sho93.1;NA;OBIGT) ; #Hf°(g) =   -110.52 kJ.mol-1 (Sho93.1;NA;OBIGT)
ethylene(g)
[C]2[H]4 = 2 [C](g) + 4 [H](g)
	log_k	  -365.72 ; delta_h	    2252.92 ; #Gf°(g) =     68.12 kJ.mol-1 (Sho93.1;NA;OBIGT) ; #Hf°(g) =     52.30 kJ.mol-1 (Sho93.1;NA;OBIGT)
phenol(g)
[C]6[H]6[O] = 6 [C](g) + 6 [H](g) + [O](g) 
	log_k	  -965.67 ; delta_h	    5953.41 ; #Gf°(g) =    -32.89 kJ.mol-1 (DSM+97.1;NA;OBIGT) ; #Hf°(g) =    -96.36 kJ.mol-1 (DSM+97.1;NA;OBIGT)
ortho-cresol(g)
[C]7[H]8[O] = 7 [C](g) + 8 [H](g) + [O](g) 
	log_k	 -1155.23 ; delta_h	    7138.28 ; #Gf°(g) =    -37.07 kJ.mol-1 (DSM+97.1;NA;OBIGT) ; #Hf°(g) =   -128.62 kJ.mol-1 (DSM+97.1;NA;OBIGT)
meta-cresol(g)
[C]7[H]8[O] = 7 [C](g) + 8 [H](g) + [O](g) 
	log_k	 -1155.84 ; delta_h	    7142.00 ; #Gf°(g) =    -40.54 kJ.mol-1 (DSM+97.1;NA;OBIGT) ; #Hf°(g) =   -132.34 kJ.mol-1 (DSM+97.1;NA;OBIGT)
para-cresol(g)
[C]7[H]8[O] = 7 [C](g) + 8 [H](g) + [O](g) 
	log_k	 -1154.14 ; delta_h	    7135.06 ; #Gf°(g) =    -30.88 kJ.mol-1 (DSM+97.1;NA;OBIGT) ; #Hf°(g) =   -125.39 kJ.mol-1 (DSM+97.1;NA;OBIGT)
ethane(g)
[C]2[H]6 = 2 [C](g) + 6 [H](g)
	log_k	  -454.66 ; delta_h	    2825.67 ; #Gf°(g) =    -33.00 kJ.mol-1 (HOKR98;NA;OBIGT) ; #Hf°(g) =    -84.52 kJ.mol-1 (HOKR98;NA;OBIGT)
propane(g)
[C]3[H]8 = 3 [C](g) + 8 [H](g)
	log_k	  -642.02 ; delta_h	    3998.92 ; #Gf°(g) =    -24.63 kJ.mol-1 (HOKR98;NA;OBIGT) ; #Hf°(g) =   -105.15 kJ.mol-1 (HOKR98;NA;OBIGT)
butane(g)
[C]4[H]10 = 4 [C](g) + 10 [H](g)
	log_k	  -829.38 ; delta_h	    5172.16 ; #Gf°(g) =    -16.26 kJ.mol-1 (HOKR98;NA;OBIGT) ; #Hf°(g) =   -125.78 kJ.mol-1 (HOKR98;NA;OBIGT)
pentane(g)
[C]5[H]12 = 5 [C](g) + 12 [H](g)
	log_k	 -1016.74 ; delta_h	    6345.40 ; #Gf°(g) =     -7.89 kJ.mol-1 (HOKR98;NA;OBIGT) ; #Hf°(g) =   -146.41 kJ.mol-1 (HOKR98;NA;OBIGT)
hexane(g)
[C]6[H]14 = 6 [C](g) + 14 [H](g)
	log_k	 -1204.10 ; delta_h	    7518.64 ; #Gf°(g) =      0.47 kJ.mol-1 (HOKR98;NA;OBIGT) ; #Hf°(g) =   -167.04 kJ.mol-1 (HOKR98;NA;OBIGT)
heptane(g)
[C]7[H]16 = 7 [C](g) + 16 [H](g)
	log_k	 -1391.46 ; delta_h	    8691.88 ; #Gf°(g) =      8.84 kJ.mol-1 (HOKR98;NA;OBIGT) ; #Hf°(g) =   -187.67 kJ.mol-1 (HOKR98;NA;OBIGT)
octane(g)
[C]8[H]18 = 8 [C](g) + 18 [H](g)
	log_k	 -1578.83 ; delta_h	    9865.13 ; #Gf°(g) =     17.20 kJ.mol-1 (HOKR98;NA;OBIGT) ; #Hf°(g) =   -208.30 kJ.mol-1 (HOKR98;NA;OBIGT)
nonane(g)
[C]9[H]20 = 9 [C](g) + 20 [H](g)
	log_k	 -1766.19 ; delta_h	   11038.37 ; #Gf°(g) =     25.58 kJ.mol-1 (HOKR98;NA;OBIGT) ; #Hf°(g) =   -228.93 kJ.mol-1 (HOKR98;NA;OBIGT)
decane(g)
[C]10[H]22 = 10 [C](g) + 22 [H](g)
	log_k	 -1953.55 ; delta_h	   12211.61 ; #Gf°(g) =     33.95 kJ.mol-1 (HOKR98;NA;OBIGT) ; #Hf°(g) =   -249.56 kJ.mol-1 (HOKR98;NA;OBIGT)
undecane(g)
[C]11[H]24 = 11 [C](g) + 24 [H](g)
	log_k	 -2140.91 ; delta_h	   13384.85 ; #Gf°(g) =     42.33 kJ.mol-1 (HOKR98;NA;OBIGT) ; #Hf°(g) =   -270.19 kJ.mol-1 (HOKR98;NA;OBIGT)
dodecane(g)
[C]12[H]26 = 12 [C](g) + 26 [H](g)
	log_k	 -2328.27 ; delta_h	   14558.10 ; #Gf°(g) =     50.68 kJ.mol-1 (HOKR98;NA;OBIGT) ; #Hf°(g) =   -290.82 kJ.mol-1 (HOKR98;NA;OBIGT)
tridecane(g)
[C]13[H]28 = 13 [C](g) + 28 [H](g)
	log_k	 -2515.63 ; delta_h	   15731.34 ; #Gf°(g) =     59.06 kJ.mol-1 (HOKR98;NA;OBIGT) ; #Hf°(g) =   -311.45 kJ.mol-1 (HOKR98;NA;OBIGT)
tetradecane(g)
[C]14[H]30 = 14 [C](g) + 30 [H](g)
	log_k	 -2702.99 ; delta_h	   16904.58 ; #Gf°(g) =     67.42 kJ.mol-1 (HOKR98;NA;OBIGT) ; #Hf°(g) =   -332.08 kJ.mol-1 (HOKR98;NA;OBIGT)
pentadecane(g)
[C]15[H]32 = 15 [C](g) + 32 [H](g)
	log_k	 -2890.36 ; delta_h	   18077.82 ; #Gf°(g) =     75.79 kJ.mol-1 (HOKR98;NA;OBIGT) ; #Hf°(g) =   -352.71 kJ.mol-1 (HOKR98;NA;OBIGT)
hexadecane(g)
[C]16[H]34 = 16 [C](g) + 34 [H](g)
	log_k	 -3077.72 ; delta_h	   19251.06 ; #Gf°(g) =     84.15 kJ.mol-1 (HOKR98;NA;OBIGT) ; #Hf°(g) =   -373.34 kJ.mol-1 (HOKR98;NA;OBIGT)
heptadecane(g)
[C]17[H]36 = 17 [C](g) + 36 [H](g)
	log_k	 -3265.08 ; delta_h	   20424.30 ; #Gf°(g) =     92.53 kJ.mol-1 (HOKR98;NA;OBIGT) ; #Hf°(g) =   -393.97 kJ.mol-1 (HOKR98;NA;OBIGT)
octadecane(g)
[C]18[H]38 = 18 [C](g) + 38 [H](g)
	log_k	 -3452.44 ; delta_h	   21597.55 ; #Gf°(g) =    100.89 kJ.mol-1 (HOKR98;NA;OBIGT) ; #Hf°(g) =   -414.60 kJ.mol-1 (HOKR98;NA;OBIGT)
nonadecane(g)
[C]19[H]40 = 19 [C](g) + 40 [H](g)
	log_k	 -3639.80 ; delta_h	   22770.79 ; #Gf°(g) =    109.26 kJ.mol-1 (HOKR98;NA;OBIGT) ; #Hf°(g) =   -435.23 kJ.mol-1 (HOKR98;NA;OBIGT)
eicosane(g)
[C]20[H]42 = 20 [C](g) + 42 [H](g)
	log_k	 -3827.16 ; delta_h	   23944.03 ; #Gf°(g) =    117.63 kJ.mol-1 (HOKR98;NA;OBIGT) ; #Hf°(g) =   -455.86 kJ.mol-1 (HOKR98;NA;OBIGT)
heneicosane(g)
[C]21[H]44 = 21 [C](g) + 44 [H](g)
	log_k	 -4014.52 ; delta_h	   25117.27 ; #Gf°(g) =    126.01 kJ.mol-1 (HOKR98;NA;OBIGT) ; #Hf°(g) =   -476.49 kJ.mol-1 (HOKR98;NA;OBIGT)
docosane(g)
[C]22[H]46 = 22 [C](g) + 46 [H](g)
	log_k	 -4201.89 ; delta_h	   26290.52 ; #Gf°(g) =    134.36 kJ.mol-1 (HOKR98;NA;OBIGT) ; #Hf°(g) =   -497.12 kJ.mol-1 (HOKR98;NA;OBIGT)
tricosane(g)
[C]23[H]48 = 23 [C](g) + 48 [H](g)
	log_k	 -4389.25 ; delta_h	   27463.76 ; #Gf°(g) =    142.74 kJ.mol-1 (HOKR98;NA;OBIGT) ; #Hf°(g) =   -517.75 kJ.mol-1 (HOKR98;NA;OBIGT)
tetracosane(g)
[C]24[H]50 = 24 [C](g) + 50 [H](g)
	log_k	 -4576.61 ; delta_h	   28637.00 ; #Gf°(g) =    151.10 kJ.mol-1 (HOKR98;NA;OBIGT) ; #Hf°(g) =   -538.38 kJ.mol-1 (HOKR98;NA;OBIGT)
pentacosane(g)
[C]25[H]52 = 25 [C](g) + 52 [H](g)
	log_k	 -4763.97 ; delta_h	   29810.24 ; #Gf°(g) =    159.47 kJ.mol-1 (HOKR98;NA;OBIGT) ; #Hf°(g) =   -559.01 kJ.mol-1 (HOKR98;NA;OBIGT)
hexacosane(g)
[C]26[H]54 = 26 [C](g) + 54 [H](g)
	log_k	 -4951.33 ; delta_h	   30983.48 ; #Gf°(g) =    167.83 kJ.mol-1 (HOKR98;NA;OBIGT) ; #Hf°(g) =   -579.64 kJ.mol-1 (HOKR98;NA;OBIGT)
heptacosane(g)
[C]27[H]56 = 27 [C](g) + 56 [H](g)
	log_k	 -5138.69 ; delta_h	   32156.72 ; #Gf°(g) =    176.21 kJ.mol-1 (HOKR98;NA;OBIGT) ; #Hf°(g) =   -600.27 kJ.mol-1 (HOKR98;NA;OBIGT)
octacosane(g)
[C]28[H]58 = 28 [C](g) + 58 [H](g)
	log_k	 -5326.06 ; delta_h	   33329.97 ; #Gf°(g) =    184.57 kJ.mol-1 (HOKR98;NA;OBIGT) ; #Hf°(g) =   -620.90 kJ.mol-1 (HOKR98;NA;OBIGT)
nonacosane(g)
[C]29[H]60 = 29 [C](g) + 60 [H](g)
	log_k	 -5513.42 ; delta_h	   34503.21 ; #Gf°(g) =    192.94 kJ.mol-1 (HOKR98;NA;OBIGT) ; #Hf°(g) =   -641.53 kJ.mol-1 (HOKR98;NA;OBIGT)
triacontane(g)
[C]30[H]62 = 30 [C](g) + 62 [H](g)
	log_k	 -5700.78 ; delta_h	   35676.45 ; #Gf°(g) =    201.32 kJ.mol-1 (HOKR98;NA;OBIGT) ; #Hf°(g) =   -662.16 kJ.mol-1 (HOKR98;NA;OBIGT)
hentriacontane(g)
[C]31[H]64 = 31 [C](g) + 64 [H](g)
	log_k	 -5888.14 ; delta_h	   36849.69 ; #Gf°(g) =    209.69 kJ.mol-1 (HOKR98;NA;OBIGT) ; #Hf°(g) =   -682.79 kJ.mol-1 (HOKR98;NA;OBIGT)
dotriacontane(g)
[C]32[H]66 = 32 [C](g) + 66 [H](g)
	log_k	 -6075.50 ; delta_h	   38022.94 ; #Gf°(g) =    218.05 kJ.mol-1 (HOKR98;NA;OBIGT) ; #Hf°(g) =   -703.42 kJ.mol-1 (HOKR98;NA;OBIGT)
tritriacontane(g)
[C]33[H]68 = 33 [C](g) + 68 [H](g)
	log_k	 -6262.86 ; delta_h	   39196.18 ; #Gf°(g) =    226.42 kJ.mol-1 (HOKR98;NA;OBIGT) ; #Hf°(g) =   -724.05 kJ.mol-1 (HOKR98;NA;OBIGT)
tetratriacontane(g)
[C]34[H]70 = 34 [C](g) + 70 [H](g)
	log_k	 -6450.22 ; delta_h	   40369.42 ; #Gf°(g) =    234.79 kJ.mol-1 (HOKR98;NA;OBIGT) ; #Hf°(g) =   -744.68 kJ.mol-1 (HOKR98;NA;OBIGT)
pentatriacontane(g)
[C]35[H]72 = 35 [C](g) + 72 [H](g)
	log_k	 -6637.58 ; delta_h	   41542.66 ; #Gf°(g) =    243.16 kJ.mol-1 (HOKR98;NA;OBIGT) ; #Hf°(g) =   -765.31 kJ.mol-1 (HOKR98;NA;OBIGT)
hexatriacontane(g)
[C]36[H]74 = 36 [C](g) + 74 [H](g)
	log_k	 -6824.95 ; delta_h	   42715.91 ; #Gf°(g) =    251.52 kJ.mol-1 (HOKR98;NA;OBIGT) ; #Hf°(g) =   -785.94 kJ.mol-1 (HOKR98;NA;OBIGT)
heptatriacontane(g)
[C]37[H]76 = 37 [C](g) + 76 [H](g)
	log_k	 -7012.31 ; delta_h	   43889.14 ; #Gf°(g) =    259.89 kJ.mol-1 (HOKR98;NA;OBIGT) ; #Hf°(g) =   -806.57 kJ.mol-1 (HOKR98;NA;OBIGT)
octatriacontane(g)
[C]38[H]78 = 38 [C](g) + 78 [H](g)
	log_k	 -7199.67 ; delta_h	   45062.39 ; #Gf°(g) =    268.25 kJ.mol-1 (HOKR98;NA;OBIGT) ; #Hf°(g) =   -827.20 kJ.mol-1 (HOKR98;NA;OBIGT)
nonatriacontane(g)
[C]39[H]80 = 39 [C](g) + 80 [H](g)
	log_k	 -7387.03 ; delta_h	   46235.63 ; #Gf°(g) =    276.63 kJ.mol-1 (HOKR98;NA;OBIGT) ; #Hf°(g) =   -847.83 kJ.mol-1 (HOKR98;NA;OBIGT)
tetracontane(g)
[C]40[H]82 = 40 [C](g) + 82 [H](g)
	log_k	 -7574.39 ; delta_h	   47408.87 ; #Gf°(g) =    285.00 kJ.mol-1 (HOKR98;NA;OBIGT) ; #Hf°(g) =   -868.46 kJ.mol-1 (HOKR98;NA;OBIGT)
2-methylpropane(g)
[C]4[H]10 = 4 [C](g) + 10 [H](g)
	log_k	  -830.05 ; delta_h	    5181.11 ; #Gf°(g) =    -20.11 kJ.mol-1 (HOKR98;NA;OBIGT) ; #Hf°(g) =   -134.73 kJ.mol-1 (HOKR98;NA;OBIGT)
2-methylbutane(g)
[C]5[H]12 = 5 [C](g) + 12 [H](g)
	log_k	 -1017.50 ; delta_h	    6352.09 ; #Gf°(g) =    -12.21 kJ.mol-1 (HOKR98;NA;OBIGT) ; #Hf°(g) =   -153.10 kJ.mol-1 (HOKR98;NA;OBIGT)
2-methylpentane(g)
[C]6[H]14 = 6 [C](g) + 14 [H](g)
	log_k	 -1204.86 ; delta_h	    7525.33 ; #Gf°(g) =     -3.85 kJ.mol-1 (HOKR98;NA;OBIGT) ; #Hf°(g) =   -173.73 kJ.mol-1 (HOKR98;NA;OBIGT)
2-methylhexane(g)
[C]7[H]16 = 7 [C](g) + 16 [H](g)
	log_k	 -1392.22 ; delta_h	    8698.57 ; #Gf°(g) =      4.52 kJ.mol-1 (HOKR98;NA;OBIGT) ; #Hf°(g) =   -194.36 kJ.mol-1 (HOKR98;NA;OBIGT)
2-methylheptane(g)
[C]8[H]18 = 8 [C](g) + 18 [H](g)
	log_k	 -1579.58 ; delta_h	    9871.82 ; #Gf°(g) =     12.88 kJ.mol-1 (HOKR98;NA;OBIGT) ; #Hf°(g) =   -214.99 kJ.mol-1 (HOKR98;NA;OBIGT)
2-methyloctane(g)
[C]9[H]20 = 9 [C](g) + 20 [H](g)