TITLE
SOLUTION_SPECIES 1
INCLUDE$ /data/data/cz.p/files/Solution.dat
PHASES 1
INCLUDE$ /data/data/cz.p/files/Gas.dat
SOLUTION 1
units	mol/L
temp 	25.0
pH 	7.00	charge
REACTION 1
[C]6[H]6 1.01
SAVE SOLUTION 1
END
USE SOLUTION 1
GAS_PHASE 1
-fixed_volume
-volume 1
benzene(g) 0.0000001
END

