# iso_w
# Data source:
# Florián, J., and A. Warshel. "ChemSol, version 2.1." University of Southern California, Los Angeles (1999).
# Bard, A. J., Parsons, R., Jordan, J. (editors), Standard potentials in aqueous solution, Marcel Dekker, New York 1985.
# Dick, J. M., CHNOSZ: Thermodynamic calculations and diagrams for geochemistry, Frontiers in Earth Science, 7 (2019) 180.
# Kobayashi, K., Suzuki T.S, Electron Comm Jpn. 2019;102:12–16.
# Shkol’nikov, E.V., Russian Journal of Physical Chemistry A 90(3) 2016.

SOLUTION_MASTER_SPECIES
[C]     [C]     0       [C]    12.0111
E            e-             0       0               0.0
H            H3O+           -1      H               1.008
H(0)         H2             0       H
H(1)         H3O+           -1      H
O            H2O            0       O               16.00
O(0)         O2             0       O
O(-2)        H2O            0       O
Ca           Ca+2           0       Ca              40.08
Mg           Mg+2           0       Mg              24.312
Na           Na+            0       Na              22.9898
K            K+             0       K               39.102
Fe           Fe+2           0.0     Fe              55.847
Fe(+2)       Fe+2           0.0     Fe
Fe(+3)       Fe+3           -2.0    Fe
Al           Al+3           0.0     Al              26.9815
Si           H4SiO4         0.0     SiO2            28.0843
Cl           Cl-            0       Cl              35.453
C            CO2            0       HCO3            12.0111
C(4)         CO2            0       HCO3
C(-4)        CH4            0       CH4
[S]            [S]O4-2          0       [S]               31.972
[S](6)         [S]O4-2          0       [S]O4
[S](-2)        H[S]-            1       [S]
[N]            [N]O3-           0       [N]               14.0067
[N](+5)        [N]O3-           0       [N]
[N](+3)        [N]O2-           0       [N]
[N](0)         [N]2             0       [N]
[N](-3)        [N]H4+           0       [N]
P            PO4-3          2.0     P               30.9738
[F]            [F]-             0.0     [F]               18.9984
Br           Br-            0.0     Br              79.904

SOLUTION_SPECIES
[C] = [C]
0.5 O2 = O ; log_k	-41.3 ; delta_h	250.3
0.5 H2 = H			 ; log_k	-36.3	 ; delta_h	219.1
Al+3 + 3 e- = Al ; log_k	    -137.60 ; delta_h	   853.87 # Bard
Br- = Br + e- ; log_k	     -35.51 ; delta_h	   219.20 # Bard
CH4 = C + 4 H ; log_k	    -278.47 ; delta_h	  1673.69 # Bard
Ca+2 + 2 e- = Ca ; log_k	    -124.92 ; delta_h	   713.91 # Bard
Cl- = Cl + e- ; log_k	     -44.28 ; delta_h	   276.09 # Bard
[F]- = [F] + e- ; log_k	     -62.37 ; delta_h	   404.16 # Bard
Fe+2 + 2 e- = Fe ; log_k	     -81.35 ; delta_h	   501.12 # Bard
K+ + e- = K ; log_k	     -62.86 ; delta_h	   328.63 # Bard
Mg+2 + 2 e- = Mg ; log_k	    -102.05 ; delta_h	   609.57 # Bard
[N]O3- = [N] + 3 O + e- ; log_k	    -235.14 ; delta_h	  1417.57 # Bard
Na+ + e- = Na ; log_k	     -62.02 ; delta_h	   338.73 # Bard
H2PO4- = P + 2 H + 4 O + e- ; log_k	    -494.39 ; delta_h	  3023.45 # Bard
H2[S] = [S] + 2 H ; log_k	    -125.53 ; delta_h	   744.81 # Bard
H4SiO4 = Si + 4 O + 4 H ; log_k	    -626.81 # Bard




H3O+ = H3O+
     log_k           0.000
     -gamma          9.0000    0.0000

e- = e-
     log_k           0.000

H2O = H2O
     log_k           0.000

Ca+2 = Ca+2
     log_k           0.000
     -gamma          5.0000    0.1650

Mg+2 = Mg+2
     log_k           0.000
     -gamma          5.5000    0.2000

Na+ = Na+
     log_k           0.000
     -gamma          4.0000    0.0750

K+ = K+
     log_k           0.000
     -gamma          3.5000    0.0150

Fe+2 = Fe+2
     log_k           0.000
     -gamma          6.0000    0.0000

Al+3 = Al+3
     log_k           0.000
     -gamma          9.0000    0.0000

H4SiO4 = H4SiO4
        log_k           0.000

Cl- = Cl-
     log_k           0.000
     -gamma          3.5000    0.0150

[S]O4-2 = [S]O4-2
     log_k           0.000
     -gamma          5.0000   -0.0400

[N]O3- = [N]O3-
     log_k           0.000
     -gamma          3.0000    0.0000

PO4-3 = PO4-3
        log_k           0.000
        -gamma    4.0000    0.0000

[F]- = [F]-
        log_k           0.000
        -gamma    3.5000    0.0000

Br- = Br-
        log_k           0.000
        -gamma    3.0000    0.0000

2H2O = OH- + H3O+
     log_k           -14.000
     delta_h         13.362 kcal
     -analytic       -283.971       -0.05069842  13323.0    102.24447      -1119669.0
     -gamma          3.5000    0.0000

6 H2O = O2 + 4 H3O+ + 4 e-
     log_k           -86.08
     delta_h         134.79 kcal

2 H3O+ + 2 e- = H2 + 2H2O
     log_k           -3.15
     delta_h         -1.759 kcal

CO2 + 2H2O = HCO3- + H3O+
     log_k           -6.352  
     delta_h         2.177 kcal
     -analytic       -356.3094       -0.06092        21834.37        126.8339        -1684915 

CO2 + 3H2O = CO3-2 + 2H3O+
     log_k           -16.681
     delta_h         5.738 kcal
     -analytic       -464.1965       -0.09344813  26986.16    165.75951      -2248628.9

CO3-2 + 10 H3O+ + 8 e- = CH4 + 13 H2O
     log_k           41.071
     delta_h         -61.039 kcal

[S]O4-2 + H3O+ = H[S]O4- + H2O
     log_k           1.988
     delta_h         3.85 kcal
     -analytic       -56.889        0.006473    2307.9       19.8858         0.0

[S]O4-2 + 9 H3O+ + 8 e- = H[S]- + 13 H2O
     log_k           33.65
     delta_h         -60.140 kcal
     -gamma          3.5000    0.0000

H[S]- + H2O = [S]-2 + H3O+
     log_k           -12.918
     delta_h         12.1 kcal
     -gamma          5.0000    0.0000

H[S]- + H3O+ = H2[S] + H2O
     log_k           6.994
     delta_h         -5.300 kcal
     -analytic       -11.17    0.02386       3279.0

[N]O3- + 2 H3O+ + 2 e- = [N]O2- + 3H2O
     log_k           28.570
     delta_h         -43.760 kcal
     -gamma          3.0000    0.0000

2 [N]O3- + 12 H3O+ + 10e- = [N]2 + 18 H2O
     log_k           207.080
     delta_h         -312.130 kcal

[N]H4+ + H2O = [N]H3 + H3O+
     log_k           -9.252
     delta_h         12.48 kcal
     -analytic       0.6322    -0.001225  -2835.76

[N]O3- + 10 H3O+ + 8 e- = [N]H4+ + 13 H2O
     log_k           119.077
     delta_h         -187.055 kcal
     -gamma          2.5000    0.0000

[N]H4+ + [S]O4-2 = [N]H4[S]O4-
     log_k           1.11

PO4-3 + H3O+ = HPO4-2 + H2O
        log_k           12.346
        delta_h -3.530  kcal
        -gamma    4.0000    0.0000

PO4-3 + 2 H3O+ = H2PO4- + 2H2O
        log_k           19.553
        delta_h -4.520  kcal
        -gamma    4.5000    0.0000

H3O+ + [F]- = H[F] + H2O
        log_k           3.18
        delta_h 3.18    kcal
        -analytic       -2.033         0.012645      429.01

H3O+ + 2 [F]- = H[F]2- + H2O
        log_k           3.760
        delta_h 4.550   kcal

Ca+2 + OH- = CaOH+
     log_k           -12.780

Ca+2 + CO3-2 = CaCO3
     log_k           3.224
     delta_h         3.545 kcal
     -analytic       -1228.732     -0.299440    35512.75      485.818

#Ca+2 + HCO3- = CaHCO3+
Ca+2 + CO3-2 + H3O+ = CaHCO3+ + H2O
     log_k           11.435
     delta_h         -0.871 kcal
     -analytic       1317.0071     0.34546894   -39916.84     -517.70761     563713.9
     -gamma          5.4000    0.0000

Ca+2 + [S]O4-2 = Ca[S]O4
     log_k           2.300
     delta_h         1.650 kcal

Ca+2 + H[S]O4- = CaH[S]O4+
     log_k           1.08

Ca+2 + PO4-3 = CaPO4-
     log_k           6.459
     delta_h         3.100 kcal

Ca+2 + HPO4-2 = CaHPO4
     log_k           2.739
     delta_h         3.3 kcal

Ca+2 + H2PO4- = CaH2PO4+
     log_k           1.408
     delta_h         3.4 kcal

Ca+2 + [F]- = Ca[F]+
        log_k           0.940
        delta_h 4.120   kcal

Mg+2 + OH- = MgOH+
     log_k           -11.440
     delta_h         15.952 kcal

Mg+2 + CO3-2 = MgCO3
     log_k           2.98
     delta_h         2.713 kcal
     -analytic       0.9910        0.00667

Mg+2 + H3O+ + CO3-2 = MgHCO3+ + H2O
     log_k           11.399
     delta_h         -2.771 kcal
     -analytic       48.6721       0.03252849   -2614.335     -18.00263      563713.9

Mg+2 + [S]O4-2 = Mg[S]O4
     log_k           2.370
     delta_h         4.550 kcal

Mg+2 + PO4-3 = MgPO4-
        log_k           6.589
        delta_h 3.100   kcal

Mg+2 + HPO4-2 = MgHPO4
        log_k           2.87
        delta_h 3.3 kcal

Mg+2 + H2PO4- = MgH2PO4+
        log_k           1.513
        delta_h 3.4 kcal

Mg+2 + [F]- = Mg[F]+
        log_k           1.820
        delta_h 3.200   kcal

Na+ + OH- = NaOH
     log_k           -14.180

Na+ + CO3-2 = NaCO3-
     log_k           1.270
     delta_h         8.910 kcal

Na+ + HCO3- = NaHCO3
     log_k           -0.25

Na+ + [S]O4-2 = Na[S]O4-
     log_k           0.700
     delta_h         1.120 kcal

Na+ + HPO4-2 = NaHPO4-
        log_k           0.29

Na+ + [F]- = Na[F]
        log_k           -0.240

K+ + OH- = KOH
     log_k           -14.460

K+ + [S]O4-2 = K[S]O4-
     log_k           0.850
     delta_h         2.250 kcal
     -analytic       3.106  0.0   -673.6

K+ + HPO4-2 = KHPO4-
        log_k           0.29

Fe+2 + 2H2O = FeOH+ + H3O+
     log_k           -9.500
     delta_h         13.200 kcal

Fe+2 + Cl- = FeCl+
     log_k           0.140

Fe+2 + CO3-2 = FeCO3
     log_k           4.380

Fe+2 + HCO3- = FeHCO3+
     log_k           2.0

Fe+2 + [S]O4-2 = Fe[S]O4
     log_k           2.250
     delta_h         3.230 kcal

Fe+2 + H[S]O4- = FeH[S]O4+
     log_k           1.08

Fe+2 + 2H[S]- = Fe(H[S])2
     log_k           8.95

Fe+2 + 3H[S]- = Fe(H[S])3-
     log_k           10.987

Fe+2 + HPO4-2 = FeHPO4
        log_k           3.6

Fe+2 + H2PO4- = FeH2PO4+
        log_k           2.7

Fe+2 + [F]- = Fe[F]+
        log_k           1.000

Fe+2 = Fe+3 + e-
        log_k           -13.020
        delta_h 9.680   kcal
        -gamma    9.0000    0.0000

Fe+3 + 2H2O = FeOH+2 + H3O+
        log_k           -2.19
        delta_h 10.4    kcal

Fe+3 + 4H2O = Fe(OH)2+ + 2 H3O+
        log_k           -5.67
        delta_h 17.1    kcal

Fe+3 + 6 H2O = Fe(OH)3 + 3 H3O+
        log_k           -12.56
        delta_h 24.8    kcal

Fe+3 + 8 H2O = Fe(OH)4- + 4 H3O+
        log_k           -21.6
        delta_h 31.9    kcal

2 Fe+3 + 4 H2O = Fe2(OH)2+4 + 2 H3O+
        log_k           -2.95
        delta_h 13.5    kcal

3 Fe+3 + 8 H2O = Fe3(OH)4+5 + 4 H3O+
        log_k           -6.3
        delta_h 14.3    kcal

Fe+3 + Cl- = FeCl+2
        log_k           1.48
        delta_h 5.6     kcal

Fe+3 + 2 Cl- = FeCl2+
        log_k           2.13

Fe+3 + 3 Cl- = FeCl3
        log_k           1.13

Fe+3 + [S]O4-2 = Fe[S]O4+
        log_k           4.04
        delta_h 3.91    kcal

Fe+3 + H[S]O4- = FeH[S]O4+2
        log_k           2.48

Fe+3 + 2 [S]O4-2 = Fe([S]O4)2-
        log_k           5.38
        delta_h 4.60            kcal

Fe+3 + HPO4-2 = FeHPO4+
        log_k           5.43
        delta_h 5.76            kcal

Fe+3 + H2PO4- = FeH2PO4+2
        log_k           5.43

Fe+3 + [F]- = Fe[F]+2
        log_k           6.2
        delta_h 2.7             kcal

Fe+3 + 2 [F]- = Fe[F]2+
        log_k           10.8
        delta_h 4.8             kcal

Fe+3 + 3 [F]- = Fe[F]3
        log_k           14.0
        delta_h 5.4             kcal

Al+3 + 2H2O = AlOH+2 + H3O+
        log_k           -5.00
        delta_h 11.49   kcal
        -analytic       -38.253        0.0          -656.27        14.327

Al+3 + 4 H2O = Al(OH)2+ + 2 H3O+
        log_k           -10.1
        delta_h 26.90           kcal
        -analytic       88.500        0.0          -9391.6       -27.121

Al+3 + 6 H2O = Al(OH)3 + 3 H3O+
        log_k           -16.9
        delta_h 39.89           kcal
        -analytic       226.374       0.0          -18247.8      -73.597

Al+3 + 8 H2O = Al(OH)4- + 4 H3O+
        log_k           -22.7
        delta_h 42.30           kcal
        -analytic       51.578        0.0          -11168.9      -14.865

Al+3 + [S]O4-2 = Al[S]O4+
        log_k           3.5
        delta_h 2.29 kcal

Al+3 + 2[S]O4-2 = Al([S]O4)2-
        log_k           5.0
        delta_h 3.11 kcal

Al+3 + H[S]O4- = AlH[S]O4+2
        log_k           0.46

Al+3 + [F]- = Al[F]+2
        log_k           7.000
        delta_h 1.060   kcal

Al+3 + 2 [F]- = Al[F]2+
        log_k           12.700
        delta_h 1.980   kcal

Al+3 + 3 [F]- = Al[F]3
        log_k           16.800
        delta_h 2.160   kcal

Al+3 + 4 [F]- = Al[F]4-
        log_k           19.400
        delta_h 2.200   kcal

Al+3 + 5 [F]- = Al[F]5-2
        log_k           20.600
        delta_h 1.840   kcal

Al+3 + 6 [F]- = Al[F]6-3
        log_k           20.600
        delta_h -1.670  kcal

H4SiO4 + H2O = H3SiO4- + H3O+
        log_k           -9.83
        delta_h 6.12            kcal
        -analytic       -302.3724     -0.050698      15669.69      108.18466    -1119669.0

H4SiO4 + 2H2O= H2SiO4-2 + 2 H3O+
        log_k           -23.0
        delta_h 17.6            kcal
        -analytic       -294.0184     -0.072650      11204.49      108.18466    -1119669.0

H4SiO4 + 4 H3O+ + 6 [F]- = Si[F]6-2 + 8 H2O
        log_k           30.180
        delta_h -16.260         kcal
PHASES
# necessary definitions:
H(g) ; H = H ; log_k	-2.44 ; delta_h	1.58 ; #H°f = 217.965 kJ.mol-1 (Bard) ; #S° = 114.71 J.K-1.mol-1 (Bard) #H(g)
# D(g) ; D = D ; log_k	-2.44 ; delta_h	1.58 ; #H°f = 221.673 kJ.mol-1 (Bard) ; #S° = 123.35 J.K-1.mol-1 (Bard) #D(g)
# T(g) ; T = T ; log_k	-2.44 ; delta_h	1.58 ; #H°f = 221.673 kJ.mol-1 (D-guess) ; #S° = 123.35 J.K-1.mol-1 (D-guess) #D(g)
O(g) ; O = O ; log_k	-3.45 ; delta_h	-2.27 ; #H°f = 249.17 kJ.mol-1 (Bard) ; #S° = 160.95 J.K-1.mol-1 (Bard) #O(g)
[F](g) ; [F] = [F] ; log_k	-2.67 ; delta_h	-7.46 ; #H°f = 78.91 kJ.mol-1 (Bard) ; #S° = 158.64 J.K-1.mol-1 (Bard) #F(g)
Cl(g) ; Cl = Cl ; log_k	-2.80 ; delta_h	-12.44 ; #H°f = 121.679 kJ.mol-1 (Bard) ; #S° = 165.09 J.K-1.mol-1 (Bard) #Cl(g)
Br(g) ; Br = Br ; log_k	-2.85 ; delta_h	-14.24 ; #H°f = 111.884 kJ.mol-1 (Bard) ; #S° = 174.91 J.K-1.mol-1 (Bard) #Br(g)
# I(g) ; I = I ; log_k	-2.93 ; delta_h	-17.33 ; #H°f = 106.62 kJ.mol-1 (Bard) ; #S° = 180.68 J.K-1.mol-1 (Bard) #I(g)
[S](g) ; [S] = [S] ; log_k	-2.81 ; delta_h	-12.77 ; #H°f = 278.81 kJ.mol-1 (Bard) ; #S° = 167.71 J.K-1.mol-1 (Bard) #S(g)
# Se(g) ; Se = Se ; log_k	-2.77 ; delta_h	-11.39 ; #H°f = 227.07 kJ.mol-1 (Bard) ; #S° = 176.58 J.K-1.mol-1 (Bard) #Se(g)
# Te(g) ; Te = Te ; log_k	-2.91 ; delta_h	-16.50 ; #H°f = 196.73 kJ.mol-1 (Bard) ; #S° = 182.63 J.K-1.mol-1 (Bard) #Te(g)
# Po(g) ; Po = Po ; log_k	-2.77 ; delta_h	-11.39 ; #H°f = 146.988 kJ.mol-1 (Bard) ; #S° = 188.81 J.K-1.mol-1 (Bard) #Po(g)
[N](g) ; [N] = [N] ; log_k	-3.67 ; delta_h	-3.23 ; #H°f = 472.704 kJ.mol-1 (Bard) ; #S° = 153.20 J.K-1.mol-1 (Bard) #N(g)
P(g) ; P = P ; log_k	-2.81 ; delta_h	-12.77 ; #H°f = 314.25 kJ.mol-1 (Bard) ; #S° = 162.93 J.K-1.mol-1 (Bard) #P(g)
# As(g) ; As = As ; log_k	-2.77 ; delta_h	-11.39 ; #H°f = 302.5 kJ.mol-1 (Bard) ; #S° = 174.10 J.K-1.mol-1 (Bard) #As(g)
# Sb(g) ; Sb = Sb ; log_k	-2.77 ; delta_h	-11.39 ; #H°f = 262.3 kJ.mol-1 (Bard) ; #S° = 180.16 J.K-1.mol-1 (Bard) #Sb(g)
# Bi(g) ; Bi = Bi ; log_k	-2.77 ; delta_h	-11.39 ; #H°f = 207.1 kJ.mol-1 (Bard) ; #S° = 186.90 J.K-1.mol-1 (Bard) #Bi(g)
[C](g) ; [C] = [C] ; log_k	-2.71 ; delta_h	-8.71 ; #H°f = 718.384 kJ.mol-1 (Bard) ; #S° = 157.99 J.K-1.mol-1 (Bard) #C(g)
C(g) ; C = C ; log_k	-2.71 ; delta_h	-8.71 ; #H°f = 718.384 kJ.mol-1 (Bard) ; #S° = 157.99 J.K-1.mol-1 (Bard) #C(g)
Si(g) ; Si = Si ; log_k	-2.80 ; delta_h	-12.02 ; #H°f = 368.4 kJ.mol-1 (Bard) ; #S° = 167.90 J.K-1.mol-1 (Bard) #Si(g)
# Ge(g) ; Ge = Ge ; log_k	-2.68 ; delta_h	-7.71 ; #H°f = 328.19 kJ.mol-1 (Bard) ; #S° = 167.80 J.K-1.mol-1 (Bard) #Ge(g)
# Sn(g) ; Sn = Sn ; log_k	-2.67 ; delta_h	-7.42 ; #H°f = 301 kJ.mol-1 (Bard) ; #S° = 168.39 J.K-1.mol-1 (Bard) #Sn(g)
# Pb(g) ; Pb = Pb ; log_k	-2.69 ; delta_h	-8.04 ; #H°f = 193.9 kJ.mol-1 (Bard) ; #S° = 175.27 J.K-1.mol-1 (Bard) #Pb(g)
# Ga(g) ; Ga = Ga ; log_k	-2.61 ; delta_h	-5.20 ; #H°f = 277 kJ.mol-1 (Bard) ; #S° = 169.00 J.K-1.mol-1 (Bard) #Ga(g)
# In(g) ; In = In ; log_k	-2.67 ; delta_h	-7.42 ; #H°f = 243.3 kJ.mol-1 (Bard) ; #S° = 173.70 J.K-1.mol-1 (Bard) #In(g)
# Tl(g) ; Tl = Tl ; log_k	-2.61 ; delta_h	-5.20 ; #H°f = 182.2 kJ.mol-1 (Bard) ; #S° = 180.85 J.K-1.mol-1 (Bard) #Tl(g)
# Zn(g) ; Zn = Zn ; log_k	-2.55 ; delta_h	-2.77 ; #H°f = 130.73 kJ.mol-1 (Bard) ; #S° = 160.88 J.K-1.mol-1 (Bard) #Zn(g)
# Cd(g) ; Cd = Cd ; log_k	-2.61 ; delta_h	-5.03 ; #H°f = 112.01 kJ.mol-1 (Bard) ; #S° = 167.75 J.K-1.mol-1 (Bard) #Cd(g)
# Hg(g) ; Hg = Hg ; log_k	-2.60 ; delta_h	-4.86 ; #H°f = 61.317 kJ.mol-1 (Bard) ; #S° = 174.85 J.K-1.mol-1 (Bard) #Hg(g)
# Cu(g) ; Cu = Cu ; log_k	-2.60 ; delta_h	-4.49 ; #H°f = 338 kJ.mol-1 (Bard) ; #S° = 166.52 J.K-1.mol-1 (Bard) #Cu(g)
# Ag(g) ; Ag = Ag ; log_k	-2.64 ; delta_h	-6.37 ; #H°f = 284.69 kJ.mol-1 (Bard) ; #S° = 172.97 J.K-1.mol-1 (Bard) #Ag(g)
# Au(g) ; Au = Au ; log_k	-2.58 ; delta_h	-3.94 ; #H°f = 366 kJ.mol-1 (Bard) ; #S° = 180.39 J.K-1.mol-1 (Bard) #Au(g)
# Ni(g) ; Ni = Ni ; log_k	-2.54 ; delta_h	-2.61 ; #H°f = 425.14 kJ.mol-1 (Bard) ; #S° = 182.39 J.K-1.mol-1 (Bard) #Ni(g)
# Pd(g) ; Pd = Pd ; log_k	-2.61 ; delta_h	-5.20 ; #H°f = 378.2 kJ.mol-1 (Bard) ; #S° = 167.05 J.K-1.mol-1 (Bard) #Pd(g)
# Pt(g) ; Pt = Pt ; log_k	-2.77 ; delta_h	-11.39 ; #H°f = 565.3 kJ.mol-1 (Bard) ; #S° = 192.41 J.K-1.mol-1 (Bard) #Pt(g)
# Co(g) ; Co = Co ; log_k	-2.55 ; delta_h	-2.90 ; #H°f = 439 kJ.mol-1 (Bard) ; #S° = 179.41 J.K-1.mol-1 (Bard) #Co(g)
# Rh(g) ; Rh = Rh ; log_k	-2.61 ; delta_h	-5.20 ; #H°f = 556.9 kJ.mol-1 (Bard) ; #S° = 185.81 J.K-1.mol-1 (Bard) #Rh(g)
# Ir(g) ; Ir = Ir ; log_k	-2.77 ; delta_h	-11.39 ; #H°f = 665.3 kJ.mol-1 (Bard) ; #S° = 193.58 J.K-1.mol-1 (Bard) #Ir(g)
Fe(g) ; Fe = Fe ; log_k	-2.58 ; delta_h	-4.28 ; #H°f = 416.3 kJ.mol-1 (Bard) ; #S° = 180.38 J.K-1.mol-1 (Bard) #Fe(g)
# Ru(g) ; Ru = Ru ; log_k	-2.61 ; delta_h	-5.20 ; #H°f = 642.7 kJ.mol-1 (Bard) ; #S° = 186.51 J.K-1.mol-1 (Bard) #Ru(g)
# Os(g) ; Os = Os ; log_k	-2.77 ; delta_h	-11.39 ; #H°f = 791 kJ.mol-1 (Bard) ; #S° = 192.57 J.K-1.mol-1 (Bard) #Os(g)
# Mn(g) ; Mn = Mn ; log_k	-2.60 ; delta_h	-4.82 ; #H°f = 280.7 kJ.mol-1 (Bard) ; #S° = 173.70 J.K-1.mol-1 (Bard) #Mn(g)
# Tc(g) ; Tc = Tc ; log_k	-2.61 ; delta_h	-5.20 ; #H°f = 38.7 kJ.mol-1 (Bard) ; #S° = 10.30 J.K-1.mol-1 (Bard) #Tc(g)
# Re(g) ; Re = Re ; log_k	-2.77 ; delta_h	-11.39 ; #H°f = 769.9 kJ.mol-1 (Bard) ; #S° = 188.83 J.K-1.mol-1 (Bard) #Re(g)
# Cr(g) ; Cr = Cr ; log_k	-2.60 ; delta_h	-4.57 ; #H°f = 397.5 kJ.mol-1 (Bard) ; #S° = 174.39 J.K-1.mol-1 (Bard) #Cr(g)
# Mo(g) ; Mo = Mo ; log_k	-2.61 ; delta_h	-5.20 ; #H°f = 658.1 kJ.mol-1 (Bard) ; #S° = 181.95 J.K-1.mol-1 (Bard) #Mo(g)
# W(g) ; W = W ; log_k	-2.77 ; delta_h	-11.39 ; #H°f = 856.883 kJ.mol-1 (Bard) ; #S° = 173.84 J.K-1.mol-1 (Bard) #W(g)
# V(g) ; V = V ; log_k	-2.60 ; delta_h	-4.70 ; #H°f = 515.5 kJ.mol-1 (Bard) ; #S° = 182.20 J.K-1.mol-1 (Bard) #V(g)
# Nb(g) ; Nb = Nb ; log_k	-2.61 ; delta_h	-5.20 ; #H°f = 725.9 kJ.mol-1 (Bard) ; #S° = 186.26 J.K-1.mol-1 (Bard) #Nb(g)
# Ta(g) ; Ta = Ta ; log_k	-2.77 ; delta_h	-11.39 ; #H°f = 782 kJ.mol-1 (Bard) ; #S° = 185.21 J.K-1.mol-1 (Bard) #Ta(g)
# Ti(g) ; Ti = Ti ; log_k	-2.61 ; delta_h	-5.20 ; #H°f = 397.5 kJ.mol-1 (Bard) ; #S° = 180.20 J.K-1.mol-1 (Bard) #Ti(g)
# Zr(g) ; Zr = Zr ; log_k	-2.61 ; delta_h	-5.20 ; #H°f = 608.8 kJ.mol-1 (Bard) ; #S° = 181.36 J.K-1.mol-1 (Bard) #Zr(g)
# Hf(g) ; Hf = Hf ; log_k	-2.77 ; delta_h	-11.39 ; #H°f = 619.2 kJ.mol-1 (Bard) ; #S° = 186.99 J.K-1.mol-1 (Bard) #Hf(g)
# Sc(g) ; Sc = Sc ; log_k	-2.54 ; delta_h	-2.61 ; #H°f = 381.2 kJ.mol-1 (Bard) ; #S° = 174.68 J.K-1.mol-1 (Bard) #Sc(g)
# Y(g) ; Y = Y ; log_k	-2.58 ; delta_h	-3.82 ; #H°f = 421.3 kJ.mol-1 (Bard) ; #S° = 179.48 J.K-1.mol-1 (Bard) #Y(g)
# La(g) ; La = La ; log_k	-2.66 ; delta_h	-6.66 ; #H°f = 431 kJ.mol-1 (Bard) ; #S° = 182.38 J.K-1.mol-1 (Bard) #La(g)
# Ac(g) ; Ac = Ac ; log_k	-2.77 ; delta_h	-11.39 ; #H°f = 406 kJ.mol-1 (Bard) ; #S° = 188.10 J.K-1.mol-1 (Bard) #Ac(g)
# Ce(g) ; Ce = Ce ; log_k	-2.66 ; delta_h	-6.66 ; #H°f = 420.1 kJ.mol-1 (Bard) ; #S° = 191.77 J.K-1.mol-1 (Bard) #Ce(g)
# Pr(g) ; Pr = Pr ; log_k	-2.66 ; delta_h	-6.66 ; #H°f = 356.9 kJ.mol-1 (Bard) ; #S° = 189.81 J.K-1.mol-1 (Bard) #Pr(g)
# Nd(g) ; Nd = Nd ; log_k	-2.66 ; delta_h	-6.66 ; #H°f = 326.9 kJ.mol-1 (Bard) ; #S° = 189.41 J.K-1.mol-1 (Bard) #Nd(g)
# Pm(g) ; Pm = Pm ; log_k	-2.66 ; delta_h	-6.66 ; #H°f = 318 kJ.mol-1 (Bard) ; #S° = 187.10 J.K-1.mol-1 (Bard) #Pm(g)
# Sm(g) ; Sm = Sm ; log_k	-2.66 ; delta_h	-6.66 ; #H°f = 206.7 kJ.mol-1 (Bard) ; #S° = 183.04 J.K-1.mol-1 (Bard) #Sm(g)
# Eu(g) ; Eu = Eu ; log_k	-2.66 ; delta_h	-6.66 ; #H°f = 177.4 kJ.mol-1 (Bard) ; #S° = 188.80 J.K-1.mol-1 (Bard) #Eu(g)
# Gd(g) ; Gd = Gd ; log_k	-2.66 ; delta_h	-6.66 ; #H°f = 397.5 kJ.mol-1 (Bard) ; #S° = 194.31 J.K-1.mol-1 (Bard) #Gd(g)
# Tb(g) ; Tb = Tb ; log_k	-2.66 ; delta_h	-6.66 ; #H°f = 388.7 kJ.mol-1 (Bard) ; #S° = 303.58 J.K-1.mol-1 (Bard) #Tb(g)
# Dy(g) ; Dy = Dy ; log_k	-2.66 ; delta_h	-6.66 ; #H°f = 290.4 kJ.mol-1 (Bard) ; #S° = 196.63 J.K-1.mol-1 (Bard) #Dy(g)
# Ho(g) ; Ho = Ho ; log_k	-2.66 ; delta_h	-6.66 ; #H°f = 300.6 kJ.mol-1 (Bard) ; #S° = 195.59 J.K-1.mol-1 (Bard) #Ho(g)
# Er(g) ; Er = Er ; log_k	-2.66 ; delta_h	-6.66 ; #H°f = 311.9 kJ.mol-1 (Bard) ; #S° = 195.59 J.K-1.mol-1 (Bard) #Er(g)
# Tm(g) ; Tm = Tm ; log_k	-2.66 ; delta_h	-6.66 ; #H°f = 232.2 kJ.mol-1 (Bard) ; #S° = 190.11 J.K-1.mol-1 (Bard) #Tm(g)
# Yb(g) ; Yb = Yb ; log_k	-2.66 ; delta_h	-6.66 ; #H°f = 155.6 kJ.mol-1 (Bard) ; #S° = 173.13 J.K-1.mol-1 (Bard) #Yb(g)
# Lu(g) ; Lu = Lu ; log_k	-2.66 ; delta_h	-6.66 ; #H°f = 427.6 kJ.mol-1 (Bard) ; #S° = 184.80 J.K-1.mol-1 (Bard) #Lu(g)
# Th(g) ; Th = Th ; log_k	-2.77 ; delta_h	-11.39 ; #H°f = 597.1 kJ.mol-1 (Bard) ; #S° = 190.04 J.K-1.mol-1 (Bard) #Th(g)
# Pa(g) ; Pa = Pa ; log_k	-2.77 ; delta_h	-11.39 ; #H°f = 607 kJ.mol-1 (Bard) ; #S° = 197.90 J.K-1.mol-1 (Bard) #Pa(g)
# U(g) ; U = U ; log_k	-2.77 ; delta_h	-11.39 ; #H°f = 531.4 kJ.mol-1 (Bard) ; #S° = 199.70 J.K-1.mol-1 (Bard) #U(g)
# Np(g) ; Np = Np ; log_k	-2.77 ; delta_h	-11.39 ; #H°f = 464.8 kJ.mol-1 (Bard) ; #S° = 117.61 J.K-1.mol-1 (Bard) #Np(g)
# Pu(g) ; Pu = Pu ; log_k	-2.77 ; delta_h	-11.39 ; #H°f = 345.2 kJ.mol-1 (Bard) ; #S° = 177.10 J.K-1.mol-1 (Bard) #Pu(g)
# B(g) ; B = B ; log_k	-2.66 ; delta_h	-7.21 ; #H°f = 562.7 kJ.mol-1 (Bard) ; #S° = 153.34 J.K-1.mol-1 (Bard) #B(g)
Al(g) ; Al = Al ; log_k	-2.57 ; delta_h	-3.53 ; #H°f = 329.7 kJ.mol-1 (Bard) ; #S° = 164.44 J.K-1.mol-1 (Bard) #Al(g)
# Be(g) ; Be = Be ; log_k	-2.61 ; delta_h	-5.20 ; #H°f = 324.3 kJ.mol-1 (Bard) ; #S° = 136.16 J.K-1.mol-1 (Bard) #Be(g)
Mg(g) ; Mg = Mg ; log_k	-2.58 ; delta_h	-4.15 ; #H°f = 147.1 kJ.mol-1 (Bard) ; #S° = 148.59 J.K-1.mol-1 (Bard) #Mg(g)
Ca(g) ; Ca = Ca ; log_k	-2.66 ; delta_h	-7.12 ; #H°f = 178.2 kJ.mol-1 (Bard) ; #S° = 154.88 J.K-1.mol-1 (Bard) #Ca(g)
# Sr(g) ; Sr = Sr ; log_k	-2.72 ; delta_h	-9.13 ; #H°f = 164.4 kJ.mol-1 (Bard) ; #S° = 164.51 J.K-1.mol-1 (Bard) #Sr(g)
# Ba(g) ; Ba = Ba ; log_k	-2.76 ; delta_h	-10.76 ; #H°f = 180 kJ.mol-1 (Bard) ; #S° = 170.13 J.K-1.mol-1 (Bard) #Ba(g)
# Ra(g) ; Ra = Ra ; log_k	-2.86 ; delta_h	-14.78 ; #H°f = 159 kJ.mol-1 (Bard) ; #S° = 176.36 J.K-1.mol-1 (Bard) #Ra(g)
# Li(g) ; Li = Li ; log_k	-2.63 ; delta_h	-5.91 ; #H°f = 160.71 kJ.mol-1 (Bard) ; #S° = 138.67 J.K-1.mol-1 (Bard) #Li(g)
Na(g) ; Na = Na ; log_k	-2.69 ; delta_h	-8.25 ; #H°f = 107.68 kJ.mol-1 (Bard) ; #S° = 153.61 J.K-1.mol-1 (Bard) #Na(g)
K(g) ; K = K ; log_k	-2.78 ; delta_h	-11.81 ; #H°f = 89.16 kJ.mol-1 (Bard) ; #S° = 160.20 J.K-1.mol-1 (Bard) #K(g)
# Rb(g) ; Rb = Rb ; log_k	-2.82 ; delta_h	-13.02 ; #H°f = 85.81 kJ.mol-1 (Bard) ; #S° = 169.99 J.K-1.mol-1 (Bard) #Rb(g)
# Cs(g) ; Cs = Cs ; log_k	-2.88 ; delta_h	-15.49 ; #H°f = 78.78 kJ.mol-1 (Bard) ; #S° = 175.49 J.K-1.mol-1 (Bard) #Cs(g)
#Fr(g) ; Fr = Fr ; log_k	-2.77 ; delta_h	-11.39 ; #H°f = 0 kJ.mol-1 (Bard) ; #S° = 0.00 J.K-1.mol-1 (Bard) #Fr(g)
# He(g) ; He = He ; log_k	-2.36 ; delta_h	1.16 ; #H°f = 0 kJ.mol-1 (Bard) ; #S° = 126.15 J.K-1.mol-1 (Bard) #He(g)
# Ne(g) ; Ne = Ne ; log_k	-2.68 ; delta_h	-7.71 ; #H°f = 0 kJ.mol-1 (Bard) ; #S° = 146.33 J.K-1.mol-1 (Bard) #Ne(g)
# Ar(g) ; Ar = Ar ; log_k	-2.74 ; delta_h	-9.89 ; #H°f = 0 kJ.mol-1 (Bard) ; #S° = 154.84 J.K-1.mol-1 (Bard) #Ar(g)
# Kr(g) ; Kr = Kr ; log_k	-2.77 ; delta_h	-11.39 ; #H°f = 0 kJ.mol-1 (Bard) ; #S° = 164.98 J.K-1.mol-1 (Bard) #Kr(g)
# Xe(g) ; Xe = Xe ; log_k	-2.88 ; delta_h	-15.16 ; #H°f = 0 kJ.mol-1 (Bard) ; #S° = 169.68 J.K-1.mol-1 (Bard) #Xe(g)
# Rn(g) ; Rn = Rn ; log_k	-2.77 ; delta_h	-11.39 ; #H°f = 0 kJ.mol-1 (Bard) ; #S° = 176.21 J.K-1.mol-1 (Bard) #Rn(g)
# Am(g) ; Am = Am ; log_k	-2.77 ; delta_h	-11.39 ; #H°f = 284.1 kJ.mol-1 (Bard) ; #S° = 194.40 J.K-1.mol-1 (Bard) #Am(g)
# Cm(g) ; Cm = Cm ; log_k	-2.77 ; delta_h	-11.39 ; #H°f = 387.4 kJ.mol-1 (Bard) ; #S° = 197.00 J.K-1.mol-1 (Bard) #Cm(g)




Calcite
     CaCO3 = CO3-2 + Ca+2
     log_k           -8.480
     delta_h         -2.297 kcal
     -analytic       -171.9065     -0.077993      2839.319      71.595

Dolomite
        CaMg(CO3)2 = Ca+2 + Mg+2 + 2 CO3-2
        log_k           -17.090
        delta_h -9.436 kcal

Siderite
        FeCO3 = Fe+2 + CO3-2
        log_k           -10.890
        delta_h -2.480 kcal

Gypsum
     Ca[S]O4:2H2O = Ca+2 + [S]O4-2 + 2 H2O
     log_k           -4.580
     delta_h         -0.109 kcal
     -analytic       68.2401       0.0          -3221.51      -25.0627

Anhydrite
     Ca[S]O4 = Ca+2 + [S]O4-2
     log_k           -4.360
     delta_h         -1.710 kcal
     -analytic       197.52        0.0          -8669.8       -69.835

Hydroxyapatite
        Ca5(PO4)3OH + 4 H3O+ = 5H2O + 3 HPO4-2 + 5 Ca+2
        log_k           -3.421
        delta_h -36.155 kcal

[F]luorite
        Ca[F]2 = Ca+2 + 2 [F]-
        log_k           -10.600
        delta_h 4.690 kcal
        -analytic       66.348        0.0          -4298.2       -25.271

SiO2(a)
        SiO2 + 2 H2O = H4SiO4
        log_k           -2.710
        delta_h 3.340 kcal
        -analytic       -0.26          0.0          -731.0

Chalcedony
        SiO2 + 2 H2O = H4SiO4
        log_k           -3.550
        delta_h 4.720 kcal
        -analytic       -0.09          0.0          -1032.0

Quartz
        SiO2 + 2 H2O = H4SiO4
        log_k           -3.980
        delta_h 5.990 kcal
        -analytic       0.41          0.0          -1309.0

Gibbsite
        Al(OH)3 + 3 H3O+ = Al+3 + 6 H2O
        log_k           8.110
        delta_h -22.800 kcal

Al(OH)3(a)
        Al(OH)3 + 3 H3O+ = Al+3 + 6 H2O
        log_k           10.800
        delta_h -26.500 kcal

Kaolinite
        Al2Si2O5(OH)4 + 6 H3O+ = 7H2O + 2 H4SiO4 + 2 Al+3
        log_k           7.435
        delta_h -35.300 kcal

Albite
        NaAlSi3O8 + 8 H2O = Na+ + Al(OH)4- + 3 H4SiO4
        log_k           -18.002
        delta_h 25.896 kcal

Anorthite
        CaAl2Si2O8 + 8 H2O = Ca+2 + 2 Al(OH)4- + 2 H4SiO4
        log_k           -19.714
        delta_h 11.580 kcal

K-feldspar
        KAlSi3O8 + 8 H2O = K+ + Al(OH)4- + 3 H4SiO4
        log_k           -20.573
        delta_h 30.820  kcal

K-mica
        KAl3Si3O10(OH)2 + 10 H3O+ = K+ + 3 Al+3 + 3 H4SiO4 + 10H2O
        log_k           12.703
        delta_h -59.376 kcal

Chlorite(14A)
        Mg5Al2Si3O10(OH)8 + 16 H3O+ = 5Mg+2 + 2Al+3 + 3H4SiO4 + 22H2O
        log_k           68.38
        delta_h -151.494 kcal

Ca-Montmorillonite
        Ca0.165Al2.33Si3.67O10(OH)2 + 14 H2O = 0.165Ca+2 + 2.33 Al(OH)4- + 3.67 H4SiO4 + 2 H3O+
        log_k           -45.027
        delta_h 58.373  kcal

Talc
        Mg3Si4O10(OH)2 + 4 H2O + 6 H3O+ = 3 Mg+2 + 4 H4SiO4 + 6H2O
        log_k           21.399
        delta_h -46.352 kcal

Illite
        K0.6Mg0.25Al2.3Si3.5O10(OH)2 + 12.4H2O = 0.6K+ + 0.25Mg+2 + 2.3Al(OH)4- + 3.5H4SiO4 + 1.2H3O+
        log_k           -40.267
        delta_h 54.684 kcal

Chrysotile
        Mg3Si2O5(OH)4 + 6 H3O+ = 7H2O + 2 H4SiO4 + 3 Mg+2
        log_k           32.200
        delta_h -46.800 kcal
        -analytic       13.248        0.0          10217.1       -6.1894

Sepiolite
        Mg2Si3O7.5OH:3H2O + 4 H3O+ + 0.5H2O = 2 Mg+2 + 3 H4SiO4 + 4H2O
        log_k           15.760
        delta_h -10.700 kcal

Sepiolite(d)
        Mg2Si3O7.5OH:3H2O + 4 H3O+ + 0.5H2O = 2 Mg+2 + 3 H4SiO4 + 4H2O
        log_k           18.660

Hematite
        Fe2O3 + 6 H3O+ = 2 Fe+3 + 9 H2O
        log_k           -4.008
        delta_h -30.845 kcal

Goethite
        FeOOH + 3 H3O+ = Fe+3 + 5 H2O
        log_k           -1.000
        delta_h         -14.48 kcal

Fe(OH)3(a)
        Fe(OH)3 + 3 H3O+ = Fe+3 + 6 H2O
        log_k           4.891

Pyrite
     Fe[S]2 + 2H3O+ + 2e- = Fe+2 + 2H[S]- + 2H2O
     log_k           -18.479
     delta_h         11.300 kcal

Fe[S](ppt)
        Fe[S] + H3O+ = Fe+2 + H[S]- + H2O
        log_k           -3.915

Mackinawite
        Fe[S] + H3O+ = Fe+2 + H[S]- + H2O
        log_k           -4.648

Sulfur
        [S] + 2 H3O+ + 2e- = H2[S] + 2H2O
        log_k           4.882
        delta_h -9.5 kcal

Vivianite
        Fe3(PO4)2:8H2O = 3 Fe+2 + 2 PO4-3 + 8 H2O
        log_k           -36.000

Halite
        NaCl = Na+ + Cl- 
        log_k           1.582
        delta_h 0.918 kcal

CO2(g)
     CO2(g) = CO2
     log_k           -1.468
     delta_h         -4.776 kcal
     -analytic       108.3865      0.01985076   -6919.53      -40.45154      669365.0

O2(g)
     O2 = O2
#	log_k	   -2.960
#	delta_h -1.844  kcal
	 # log K from llnl.dat  Dec 8, 2010
	log_k	   -2.8983
	-analytic -7.5001e+000 7.8981e-003 0.0000e+000 0.0000e+000 2.0027e+005     

H2(g)
     H2 = H2
     log_k           -3.150
     delta_h         -1.759 kcal

H2O(g)
     H2O = H2O
     log_k           1.51
     delta_h         -44.03 kJ

[N]2(g)
     [N]2 = [N]2
     log_k           -3.260
     delta_h         -1.358 kcal

H2[S](g)
     H2[S] = H2[S]
     log_k           -0.997
     delta_h         -4.570 kcal

CH4(g)
     CH4 = CH4
     log_k           -2.860