# pitzer_old_anhydr
# Data source:
# Florián, J., and A. Warshel. "ChemSol, version 2.1." University of Southern California, Los Angeles (1999).
# Bard, A. J., Parsons, R., Jordan, J. (editors), Standard potentials in aqueous solution, Marcel Dekker, New York 1985.
# Dick, J. M., CHNOSZ: Thermodynamic calculations and diagrams for geochemistry, Frontiers in Earth Science, 7 (2019) 180.
# Kobayashi, K., Suzuki T.S, Electron Comm Jpn. 2019;102:12–16.
# Shkol’nikov, E.V., Russian Journal of Physical Chemistry A 90(3) 2016.

# Pitzer.DAT for calculating pressure dependence of reactions, with
#   molal volumina of aqueous species and of minerals, and
#   critical temperatures and pressures of gases used in Peng-Robinson's E[O][S].
# Details are given at the end of this file.
SOLUTION_MASTER_SPECIES
[C]     [C]     0       [C]    12.0111
[H]	[H]	0	[H]	1.008

H		H+	-1	H		1.008
H(1)		H+	-1	0.0

[O]        [O]            0.0     [O]           16.00

O		H2O	 0	O		16.00
O(-2)		H2O	 0	0.0

E		e-	 0	0.0		0.0
Ca		Ca+2	 0	Ca		40.08
Mg		Mg+2	 0	Mg		24.305
Na		Na+	 0	Na		22.9898
K		K+	 0	K		39.0983
Fe		Fe+2	 0	Fe		55.847
Mn		Mn+2	 0	Mn		54.938
Ba		Ba+2	 0	Ba		137.33
Sr		Sr+2	 0	Sr		87.62
Cl		Cl-	 0	Cl		35.453
C		C[O]3-2	 2	[H]C[O]3		12.0111
C(4)		C[O]3-2	 2	[H]C[O]3		12.0111
Alkalinity	C[O]3-2	 1	Ca0.5(C[O]3)0.5	50.05
[S]		[S][O]4-2	 0	[S][O]4		32.064
[S](6)		[S][O]4-2	 0	[S][O]4
B		B([O][H])3	 0	B		10.81
Li		Li+	 0	Li		6.941
Br		Br-	 0	Br		79.904
# redox-uncoupled gases	
Hdg		Hdg	 0	Hdg		2.016 # [H]2 gas
Oxg		Oxg	 0	Oxg		32 # Oxygen gas
Mtg		Mtg	 0.0	Mtg		16.032 # C[H]4 gas
Sg		[H]2Sg	 1.0	[H]2Sg		34.08
Ntg		Ntg	 0	Ntg		28.0134 # [N]2 gas

SOLUTION_SPECIES
[C] = [C]
[H] = [H]
log_k 0
[O] = [O]
log_k 0
# 0.5 O2 = O ; log_k	-41.3 ; delta_h	250.3
# 0.5 H2 = H			 ; log_k	-36.3	 ; delta_h	219.1
 # # H2O ve stavu (aq) je jen formalismus - bere se jako (l) - kvùli výpoètùm v režimu constrained equilibria, kde je jí tøeba explicitnì definovat ve fázi roztoku # 2 [H] + [O] = [H]2[O] ; log_k	  153.38 ; delta_h	   -970.93 ; #Gf°(l) =   -237.18 kJ.mol-1 (Bard-1985) #Hf°(l) =   -285.83 kJ.mol-1 (Bard-1985)  #[H]2[O](aq) # # opravena chyba - *(-1) # [H] = [H]+ + e- ; log_k	     35.61 ; delta_h	   -217.97 #Gf°(aq) =      0.00 kJ.mol-1 (Bard-1985) #Hf°(aq) =      0.00 kJ.mol-1 (Bard-1985) #[H]+(aq) # D = D+ + e- ; log_k	     36.39 #Gf°(aq) =     -1.20 kJ.mol-1 (Bard-1985) #D+(aq)
2 [H] + [O] = [H]2[O] ; 	log_k	  153.37 ; 	delta_h	   -958.08 #	Gf°(l) =   -237.18 kJ.mol-1 (Bard-1985) #	Hf°(l) =   -285.83 kJ.mol-1 (Bard-1985) #H2O(aq)
[H] = [H]+ + e-  ; log_k	     38.05 ; delta_h	   -219.54 ; #Gf°(aq) =      0.00 kJ.mol-1 (Bard-1985) ; #Hf°(aq) =      0.00 kJ.mol-1 (Bard-1985) ; #[H]+(aq)
[O] + [H] + e- = [O][H]- ; log_k	    109.66 ; delta_h	   -696.43 ; #Gf°(aq) =   -157.29 kJ.mol-1 (Bard-1985) ; #Hf°(aq) =   -229.99 kJ.mol-1 (Bard-1985) ; #[O][H]-(aq)
Ba+2 + 2 e- = Ba ; log_k	    -126.58 ; delta_h	   706.88 # Bard
B([O][H])3 = B + 3 [H] + 3 [O] ; log_k	    -509.60 ; delta_h	  3027.13 # Bard
Br- = Br + e- ; log_k	     -35.51 ; delta_h	   219.20 # Bard
C[O]3-2 = C + 3 [O] + 2 e- ; log_k	    -344.96 ; delta_h	  2124.93 # Bard
Ca+2 + 2 e- = Ca ; log_k	    -124.92 ; delta_h	   713.91 # Bard
Cl- = Cl + e- ; log_k	     -44.28 ; delta_h	   276.09 # Bard
Fe+2 + 2 e- = Fe ; log_k	     -81.35 ; delta_h	   501.12 # Bard
K+ + e- = K ; log_k	     -62.86 ; delta_h	   328.63 # Bard
Li+ + e- = Li ; log_k	     -76.29 ; delta_h	   431.92 # Bard
Mg+2 + 2 e- = Mg ; log_k	    -102.05 ; delta_h	   609.57 # Bard
Mn+2 + 2 e- = Mn ; log_k	     -84.35 ; delta_h	   496.63 # Bard
Na+ + e- = Na ; log_k	     -62.02 ; delta_h	   338.73 # Bard
[S][O]4-2 = [S] + 4 [O] + 2 e- ; log_k	    -351.22 ; delta_h	  2162.90 # Bard
Sr+2 + 2 e- = Sr ; log_k	    -123.67 ; delta_h	   701.07 # Bard



H+ = H+
	-dw	 9.31e-9
e- = e-
H2O = H2O
Li+ = Li+
	-dw	 1.03e-9
	-Vm  -0.419  -0.069  13.16  -2.78  0.416  0  0.296  -12.4  -2.74e-3  1.26 # ref. 2 and Ellis, 1968, J. Chem. Soc. A, 1138
Na+ = Na+
	-dw	 1.33e-9
	-Vm   2.28  -4.38  -4.1  -0.586  0.09  4  0.3  52  -3.33e-3  0.566 # ref. 1
# for calculating densities (rho) when I > 3...
	# -Vm   2.28  -4.38  -4.1  -0.586  0.09  4  0.3  52  -3.33e-3  0.45
K+ = K+
	-dw	 1.96e-9
	-Vm  3.322  -1.473  6.534  -2.712  9.06e-2  3.5  0  29.70  0  1 # ref. 1
Mg+2 = Mg+2
	-dw	 0.705e-9
	-Vm  -1.410  -8.6  11.13  -2.39  1.332  5.5  1.29  -32.9  -5.86e-3  1 # ref. 1
Ca+2 = Ca+2
	-dw	 0.793e-9
	-Vm  -0.3456  -7.252  6.149  -2.479  1.239  5  1.60  -57.1  -6.12e-3  1 # ref. 1
Sr+2 = Sr+2
	-dw	 0.794e-9
	-Vm  -1.57e-2  -10.15  10.18  -2.36  0.860  5.26  0.859  -27.0  -4.1e-3  1.97 # ref. 1
Ba+2 = Ba+2
	-dw	 0.848e-9
	-Vm  2.063  -10.06  1.9534  -2.36  0.4218  5  1.58  -12.03  -8.35e-3  1 # ref. 1
Mn+2 = Mn+2
	-dw	 0.688e-9
	-Vm  -1.10  -8.03  4.08  -2.45  1.4  6  8.07  0  -1.51e-2  0.118 # ref. 2
Fe+2 = Fe+2
	-dw	 0.719e-9
	-Vm  -0.3255  -9.687  1.536  -2.379  0.3033  6  -4.21e-2  39.7  0  1 # ref. 1
Cl- = Cl-
	-dw	 2.03e-9
	-Vm  4.465  4.801  4.325  -2.847  1.748  0  -0.331  20.16  0  1 # ref. 1
C[O]3-2 = C[O]3-2
	-dw	 0.955e-9
	-Vm  4.91  0  0  -5.41  4.76  0  0.386  89.7  -1.57e-2  1 # ref. 1
[S][O]4-2 = [S][O]4-2
	-dw	 1.07e-9
	-Vm  -7.77  43.17  141.1  -42.45  3.794  0  4.97  26.5  -5.77e-2  0.45 # ref. 1
B([O][H])3 = B([O][H])3
	-dw	1.1e-9
	-Vm 7.0643   8.8547   3.5844   -3.1451 -.2000  # supcrt
Br- = Br-
	-dw	 2.01e-9
	-Vm   7.05  3.95  2.03  -3.14  2.07  0  -0.983  39.9  4.05e-3  1 # ref. 2
# redox-uncoupled gases
Hdg = Hdg # [H]2
	-dw	 5.13e-9
	-Vm 6.52  0.78  0.12 # supcrt
Oxg = Oxg # [O]2
	-dw	 2.35e-9
	-Vm   5.7889  6.3536  3.2528  -3.0417   -0.3943 # supcrt
Mtg = Mtg # C[H]4
	-dw	 1.85e-9
	-Vm 7.7 # C[H]4 solubility, 25-100C, 1-700atm
Ntg = Ntg # [N]2
	-dw	 1.96e-9
	-Vm 7 # Pray et al., 1952, IEC 44. 1146
[H]2Sg = [H]2Sg # [H]2[S]
	-dw	 2.1e-9
	-Vm  7.81  2.96  -0.46 # supcrt
# aqueous species
H2O = OH- + H+
	-analytic  293.29227  0.1360833  -10576.913  -123.73158  0  -6.996455e-5
	-dw	 5.27e-9
	-Vm  -9.66  28.5  80.0 -22.9 1.89 0 1.09 0 0 1 # ref. 1
C[O]3-2 + [H]+ = [H]C[O]3-
	log_k	   10.3393
	delta_h -3.561  kcal
	-analytic    107.8975    0.03252849  -5151.79   -38.92561    563713.9
	-dw	 1.18e-9
	-Vm  8.54  0  -11.7  0  1.6  0  0  116  0  1 # ref. 1
C[O]3-2 + 2 [H]+ = C[O]2 + [H]2[O]
	log_k	   16.6767
	delta_h	 -5.738  kcal
	-analytic    464.1965    0.09344813  -26986.16	-165.75951   2248628.9
	-dw	 1.92e-9
	-Vm  20.85  -46.93  -79.0  27.9  -0.193 # ref. 1
[S][O]4-2 + [H]+ = [H][S][O]4-
	log_k	   1.979
	delta_h 4.91    kcal
	-analytic   -5.3585   0.0183412   557.2461
	-dw	 1.33e-9
	-Vm 8.2 9.2590   2.1108   -3.1618 1.1748  0 -0.3 15 0 1 # ref. 1
[H]2Sg = [H]Sg- + [H]+
	log_k	-6.994
	delta_h 5.30	kcal
	-analytical  11.17   -0.02386  -3279.0
	-dw	 2.1e-9
	-Vm 5.0119   4.9799   3.4765   -2.9849 1.4410 # supcrt
B([O][H])3 + [H]2[O] = B([O][H])4- + [H]+
	log_k	   -9.239
	delta_h 0   kcal
3B([O][H])3 = B3[O]3([O][H])4- + 2[H]2[O] + [H]+
	log_k	   -7.528
	delta_h 0   kcal
4B([O][H])3 = B4[O]5([O][H])4-2 + 3[H]2[O] + 2[H]+
	log_k	   -16.134
	delta_h 0   kcal
Ca+2 + B([O][H])3 + [H]2[O] = CaB([O][H])4+ + [H]+
	log_k	   -7.589
	delta_h 0   kcal
Mg+2 + B([O][H])3 + [H]2[O] = MgB([O][H])4+ + [H]+
	log_k	   -7.840
	delta_h 0   kcal
# Ca+2 + C[O]3-2 = CaC[O]3
	# log_k	   3.151
	# delta_h 3.547   kcal
	# -analytic    -1228.806   -0.299440    35512.75   485.818
	# -dw 4.46e-10	# complexes: calc'd with the Pikal formula
	# -Vm  -.2430   -8.3748   9.0417   -2.4328  -.0300 # supcrt
Mg+2 + [H]2[O] = Mg[O][H]+ + [H]+
	log_k	   -11.809
	delta_h 15.419 kcal
Mg+2 + C[O]3-2 = MgC[O]3
	log_k	   2.928
	delta_h 2.535   kcal
	-analytic	-32.225   0.0	  1093.486    12.72433
	-dw 4.21e-10
	-Vm  -.5837   -9.2067   9.3687   -2.3984  -.0300 # supcrt

PHASES
# necessary definitions:
[H](g) ; [H] = [H] ; log_k	-2.44 ; delta_h	1.58 ; #H°f = 217.965 kJ.mol-1 (Bard) ; #S° = 114.71 J.K-1.mol-1 (Bard) #H(g)
# D(g) ; D = D ; log_k	-2.44 ; delta_h	1.58 ; #H°f = 221.673 kJ.mol-1 (Bard) ; #S° = 123.35 J.K-1.mol-1 (Bard) #D(g)
# T(g) ; T = T ; log_k	-2.44 ; delta_h	1.58 ; #H°f = 221.673 kJ.mol-1 (D-guess) ; #S° = 123.35 J.K-1.mol-1 (D-guess) #D(g)
[O](g) ; [O] = [O] ; log_k	-3.45 ; delta_h	-2.27 ; #H°f = 249.17 kJ.mol-1 (Bard) ; #S° = 160.95 J.K-1.mol-1 (Bard) #O(g)
# [F](g) ; [F] = [F] ; log_k	-2.67 ; delta_h	-7.46 ; #H°f = 78.91 kJ.mol-1 (Bard) ; #S° = 158.64 J.K-1.mol-1 (Bard) #F(g)
Cl(g) ; Cl = Cl ; log_k	-2.80 ; delta_h	-12.44 ; #H°f = 121.679 kJ.mol-1 (Bard) ; #S° = 165.09 J.K-1.mol-1 (Bard) #Cl(g)
Br(g) ; Br = Br ; log_k	-2.85 ; delta_h	-14.24 ; #H°f = 111.884 kJ.mol-1 (Bard) ; #S° = 174.91 J.K-1.mol-1 (Bard) #Br(g)
# I(g) ; I = I ; log_k	-2.93 ; delta_h	-17.33 ; #H°f = 106.62 kJ.mol-1 (Bard) ; #S° = 180.68 J.K-1.mol-1 (Bard) #I(g)
[S](g) ; [S] = [S] ; log_k	-2.81 ; delta_h	-12.77 ; #H°f = 278.81 kJ.mol-1 (Bard) ; #S° = 167.71 J.K-1.mol-1 (Bard) #S(g)
# Se(g) ; Se = Se ; log_k	-2.77 ; delta_h	-11.39 ; #H°f = 227.07 kJ.mol-1 (Bard) ; #S° = 176.58 J.K-1.mol-1 (Bard) #Se(g)
# Te(g) ; Te = Te ; log_k	-2.91 ; delta_h	-16.50 ; #H°f = 196.73 kJ.mol-1 (Bard) ; #S° = 182.63 J.K-1.mol-1 (Bard) #Te(g)
# Po(g) ; Po = Po ; log_k	-2.77 ; delta_h	-11.39 ; #H°f = 146.988 kJ.mol-1 (Bard) ; #S° = 188.81 J.K-1.mol-1 (Bard) #Po(g)
# [N](g) ; [N] = [N] ; log_k	-3.67 ; delta_h	-3.23 ; #H°f = 472.704 kJ.mol-1 (Bard) ; #S° = 153.20 J.K-1.mol-1 (Bard) #N(g)
# P(g) ; P = P ; log_k	-2.81 ; delta_h	-12.77 ; #H°f = 314.25 kJ.mol-1 (Bard) ; #S° = 162.93 J.K-1.mol-1 (Bard) #P(g)
# As(g) ; As = As ; log_k	-2.77 ; delta_h	-11.39 ; #H°f = 302.5 kJ.mol-1 (Bard) ; #S° = 174.10 J.K-1.mol-1 (Bard) #As(g)
# Sb(g) ; Sb = Sb ; log_k	-2.77 ; delta_h	-11.39 ; #H°f = 262.3 kJ.mol-1 (Bard) ; #S° = 180.16 J.K-1.mol-1 (Bard) #Sb(g)
# Bi(g) ; Bi = Bi ; log_k	-2.77 ; delta_h	-11.39 ; #H°f = 207.1 kJ.mol-1 (Bard) ; #S° = 186.90 J.K-1.mol-1 (Bard) #Bi(g)
[C](g) ; [C] = [C] ; log_k	-2.71 ; delta_h	-8.71 ; #H°f = 718.384 kJ.mol-1 (Bard) ; #S° = 157.99 J.K-1.mol-1 (Bard) #C(g)
C(g) ; C = C ; log_k	-2.71 ; delta_h	-8.71 ; #H°f = 718.384 kJ.mol-1 (Bard) ; #S° = 157.99 J.K-1.mol-1 (Bard) #C(g)
# Si(g) ; Si = Si ; log_k	-2.80 ; delta_h	-12.02 ; #H°f = 368.4 kJ.mol-1 (Bard) ; #S° = 167.90 J.K-1.mol-1 (Bard) #Si(g)
# Ge(g) ; Ge = Ge ; log_k	-2.68 ; delta_h	-7.71 ; #H°f = 328.19 kJ.mol-1 (Bard) ; #S° = 167.80 J.K-1.mol-1 (Bard) #Ge(g)
# Sn(g) ; Sn = Sn ; log_k	-2.67 ; delta_h	-7.42 ; #H°f = 301 kJ.mol-1 (Bard) ; #S° = 168.39 J.K-1.mol-1 (Bard) #Sn(g)
# Pb(g) ; Pb = Pb ; log_k	-2.69 ; delta_h	-8.04 ; #H°f = 193.9 kJ.mol-1 (Bard) ; #S° = 175.27 J.K-1.mol-1 (Bard) #Pb(g)
# Ga(g) ; Ga = Ga ; log_k	-2.61 ; delta_h	-5.20 ; #H°f = 277 kJ.mol-1 (Bard) ; #S° = 169.00 J.K-1.mol-1 (Bard) #Ga(g)
# In(g) ; In = In ; log_k	-2.67 ; delta_h	-7.42 ; #H°f = 243.3 kJ.mol-1 (Bard) ; #S° = 173.70 J.K-1.mol-1 (Bard) #In(g)
# Tl(g) ; Tl = Tl ; log_k	-2.61 ; delta_h	-5.20 ; #H°f = 182.2 kJ.mol-1 (Bard) ; #S° = 180.85 J.K-1.mol-1 (Bard) #Tl(g)
# Zn(g) ; Zn = Zn ; log_k	-2.55 ; delta_h	-2.77 ; #H°f = 130.73 kJ.mol-1 (Bard) ; #S° = 160.88 J.K-1.mol-1 (Bard) #Zn(g)
# Cd(g) ; Cd = Cd ; log_k	-2.61 ; delta_h	-5.03 ; #H°f = 112.01 kJ.mol-1 (Bard) ; #S° = 167.75 J.K-1.mol-1 (Bard) #Cd(g)
# Hg(g) ; Hg = Hg ; log_k	-2.60 ; delta_h	-4.86 ; #H°f = 61.317 kJ.mol-1 (Bard) ; #S° = 174.85 J.K-1.mol-1 (Bard) #Hg(g)
# Cu(g) ; Cu = Cu ; log_k	-2.60 ; delta_h	-4.49 ; #H°f = 338 kJ.mol-1 (Bard) ; #S° = 166.52 J.K-1.mol-1 (Bard) #Cu(g)
# Ag(g) ; Ag = Ag ; log_k	-2.64 ; delta_h	-6.37 ; #H°f = 284.69 kJ.mol-1 (Bard) ; #S° = 172.97 J.K-1.mol-1 (Bard) #Ag(g)
# Au(g) ; Au = Au ; log_k	-2.58 ; delta_h	-3.94 ; #H°f = 366 kJ.mol-1 (Bard) ; #S° = 180.39 J.K-1.mol-1 (Bard) #Au(g)
# Ni(g) ; Ni = Ni ; log_k	-2.54 ; delta_h	-2.61 ; #H°f = 425.14 kJ.mol-1 (Bard) ; #S° = 182.39 J.K-1.mol-1 (Bard) #Ni(g)
# Pd(g) ; Pd = Pd ; log_k	-2.61 ; delta_h	-5.20 ; #H°f = 378.2 kJ.mol-1 (Bard) ; #S° = 167.05 J.K-1.mol-1 (Bard) #Pd(g)
# Pt(g) ; Pt = Pt ; log_k	-2.77 ; delta_h	-11.39 ; #H°f = 565.3 kJ.mol-1 (Bard) ; #S° = 192.41 J.K-1.mol-1 (Bard) #Pt(g)
# Co(g) ; Co = Co ; log_k	-2.55 ; delta_h	-2.90 ; #H°f = 439 kJ.mol-1 (Bard) ; #S° = 179.41 J.K-1.mol-1 (Bard) #Co(g)
# Rh(g) ; Rh = Rh ; log_k	-2.61 ; delta_h	-5.20 ; #H°f = 556.9 kJ.mol-1 (Bard) ; #S° = 185.81 J.K-1.mol-1 (Bard) #Rh(g)
# Ir(g) ; Ir = Ir ; log_k	-2.77 ; delta_h	-11.39 ; #H°f = 665.3 kJ.mol-1 (Bard) ; #S° = 193.58 J.K-1.mol-1 (Bard) #Ir(g)
Fe(g) ; Fe = Fe ; log_k	-2.58 ; delta_h	-4.28 ; #H°f = 416.3 kJ.mol-1 (Bard) ; #S° = 180.38 J.K-1.mol-1 (Bard) #Fe(g)
# Ru(g) ; Ru = Ru ; log_k	-2.61 ; delta_h	-5.20 ; #H°f = 642.7 kJ.mol-1 (Bard) ; #S° = 186.51 J.K-1.mol-1 (Bard) #Ru(g)
# Os(g) ; Os = Os ; log_k	-2.77 ; delta_h	-11.39 ; #H°f = 791 kJ.mol-1 (Bard) ; #S° = 192.57 J.K-1.mol-1 (Bard) #Os(g)
Mn(g) ; Mn = Mn ; log_k	-2.60 ; delta_h	-4.82 ; #H°f = 280.7 kJ.mol-1 (Bard) ; #S° = 173.70 J.K-1.mol-1 (Bard) #Mn(g)
# Tc(g) ; Tc = Tc ; log_k	-2.61 ; delta_h	-5.20 ; #H°f = 38.7 kJ.mol-1 (Bard) ; #S° = 10.30 J.K-1.mol-1 (Bard) #Tc(g)
# Re(g) ; Re = Re ; log_k	-2.77 ; delta_h	-11.39 ; #H°f = 769.9 kJ.mol-1 (Bard) ; #S° = 188.83 J.K-1.mol-1 (Bard) #Re(g)
# Cr(g) ; Cr = Cr ; log_k	-2.60 ; delta_h	-4.57 ; #H°f = 397.5 kJ.mol-1 (Bard) ; #S° = 174.39 J.K-1.mol-1 (Bard) #Cr(g)
# Mo(g) ; Mo = Mo ; log_k	-2.61 ; delta_h	-5.20 ; #H°f = 658.1 kJ.mol-1 (Bard) ; #S° = 181.95 J.K-1.mol-1 (Bard) #Mo(g)
# W(g) ; W = W ; log_k	-2.77 ; delta_h	-11.39 ; #H°f = 856.883 kJ.mol-1 (Bard) ; #S° = 173.84 J.K-1.mol-1 (Bard) #W(g)
# V(g) ; V = V ; log_k	-2.60 ; delta_h	-4.70 ; #H°f = 515.5 kJ.mol-1 (Bard) ; #S° = 182.20 J.K-1.mol-1 (Bard) #V(g)
# Nb(g) ; Nb = Nb ; log_k	-2.61 ; delta_h	-5.20 ; #H°f = 725.9 kJ.mol-1 (Bard) ; #S° = 186.26 J.K-1.mol-1 (Bard) #Nb(g)
# Ta(g) ; Ta = Ta ; log_k	-2.77 ; delta_h	-11.39 ; #H°f = 782 kJ.mol-1 (Bard) ; #S° = 185.21 J.K-1.mol-1 (Bard) #Ta(g)
# Ti(g) ; Ti = Ti ; log_k	-2.61 ; delta_h	-5.20 ; #H°f = 397.5 kJ.mol-1 (Bard) ; #S° = 180.20 J.K-1.mol-1 (Bard) #Ti(g)
# Zr(g) ; Zr = Zr ; log_k	-2.61 ; delta_h	-5.20 ; #H°f = 608.8 kJ.mol-1 (Bard) ; #S° = 181.36 J.K-1.mol-1 (Bard) #Zr(g)
# Hf(g) ; Hf = Hf ; log_k	-2.77 ; delta_h	-11.39 ; #H°f = 619.2 kJ.mol-1 (Bard) ; #S° = 186.99 J.K-1.mol-1 (Bard) #Hf(g)
# Sc(g) ; Sc = Sc ; log_k	-2.54 ; delta_h	-2.61 ; #H°f = 381.2 kJ.mol-1 (Bard) ; #S° = 174.68 J.K-1.mol-1 (Bard) #Sc(g)
# Y(g) ; Y = Y ; log_k	-2.58 ; delta_h	-3.82 ; #H°f = 421.3 kJ.mol-1 (Bard) ; #S° = 179.48 J.K-1.mol-1 (Bard) #Y(g)
# La(g) ; La = La ; log_k	-2.66 ; delta_h	-6.66 ; #H°f = 431 kJ.mol-1 (Bard) ; #S° = 182.38 J.K-1.mol-1 (Bard) #La(g)
# Ac(g) ; Ac = Ac ; log_k	-2.77 ; delta_h	-11.39 ; #H°f = 406 kJ.mol-1 (Bard) ; #S° = 188.10 J.K-1.mol-1 (Bard) #Ac(g)
# Ce(g) ; Ce = Ce ; log_k	-2.66 ; delta_h	-6.66 ; #H°f = 420.1 kJ.mol-1 (Bard) ; #S° = 191.77 J.K-1.mol-1 (Bard) #Ce(g)
# Pr(g) ; Pr = Pr ; log_k	-2.66 ; delta_h	-6.66 ; #H°f = 356.9 kJ.mol-1 (Bard) ; #S° = 189.81 J.K-1.mol-1 (Bard) #Pr(g)
# Nd(g) ; Nd = Nd ; log_k	-2.66 ; delta_h	-6.66 ; #H°f = 326.9 kJ.mol-1 (Bard) ; #S° = 189.41 J.K-1.mol-1 (Bard) #Nd(g)
# Pm(g) ; Pm = Pm ; log_k	-2.66 ; delta_h	-6.66 ; #H°f = 318 kJ.mol-1 (Bard) ; #S° = 187.10 J.K-1.mol-1 (Bard) #Pm(g)
# Sm(g) ; Sm = Sm ; log_k	-2.66 ; delta_h	-6.66 ; #H°f = 206.7 kJ.mol-1 (Bard) ; #S° = 183.04 J.K-1.mol-1 (Bard) #Sm(g)
# Eu(g) ; Eu = Eu ; log_k	-2.66 ; delta_h	-6.66 ; #H°f = 177.4 kJ.mol-1 (Bard) ; #S° = 188.80 J.K-1.mol-1 (Bard) #Eu(g)
# Gd(g) ; Gd = Gd ; log_k	-2.66 ; delta_h	-6.66 ; #H°f = 397.5 kJ.mol-1 (Bard) ; #S° = 194.31 J.K-1.mol-1 (Bard) #Gd(g)
# Tb(g) ; Tb = Tb ; log_k	-2.66 ; delta_h	-6.66 ; #H°f = 388.7 kJ.mol-1 (Bard) ; #S° = 303.58 J.K-1.mol-1 (Bard) #Tb(g)
# Dy(g) ; Dy = Dy ; log_k	-2.66 ; delta_h	-6.66 ; #H°f = 290.4 kJ.mol-1 (Bard) ; #S° = 196.63 J.K-1.mol-1 (Bard) #Dy(g)
# Ho(g) ; Ho = Ho ; log_k	-2.66 ; delta_h	-6.66 ; #H°f = 300.6 kJ.mol-1 (Bard) ; #S° = 195.59 J.K-1.mol-1 (Bard) #Ho(g)
# Er(g) ; Er = Er ; log_k	-2.66 ; delta_h	-6.66 ; #H°f = 311.9 kJ.mol-1 (Bard) ; #S° = 195.59 J.K-1.mol-1 (Bard) #Er(g)
# Tm(g) ; Tm = Tm ; log_k	-2.66 ; delta_h	-6.66 ; #H°f = 232.2 kJ.mol-1 (Bard) ; #S° = 190.11 J.K-1.mol-1 (Bard) #Tm(g)
# Yb(g) ; Yb = Yb ; log_k	-2.66 ; delta_h	-6.66 ; #H°f = 155.6 kJ.mol-1 (Bard) ; #S° = 173.13 J.K-1.mol-1 (Bard) #Yb(g)
# Lu(g) ; Lu = Lu ; log_k	-2.66 ; delta_h	-6.66 ; #H°f = 427.6 kJ.mol-1 (Bard) ; #S° = 184.80 J.K-1.mol-1 (Bard) #Lu(g)
# Th(g) ; Th = Th ; log_k	-2.77 ; delta_h	-11.39 ; #H°f = 597.1 kJ.mol-1 (Bard) ; #S° = 190.04 J.K-1.mol-1 (Bard) #Th(g)
# Pa(g) ; Pa = Pa ; log_k	-2.77 ; delta_h	-11.39 ; #H°f = 607 kJ.mol-1 (Bard) ; #S° = 197.90 J.K-1.mol-1 (Bard) #Pa(g)
# U(g) ; U = U ; log_k	-2.77 ; delta_h	-11.39 ; #H°f = 531.4 kJ.mol-1 (Bard) ; #S° = 199.70 J.K-1.mol-1 (Bard) #U(g)
# Np(g) ; Np = Np ; log_k	-2.77 ; delta_h	-11.39 ; #H°f = 464.8 kJ.mol-1 (Bard) ; #S° = 117.61 J.K-1.mol-1 (Bard) #Np(g)
# Pu(g) ; Pu = Pu ; log_k	-2.77 ; delta_h	-11.39 ; #H°f = 345.2 kJ.mol-1 (Bard) ; #S° = 177.10 J.K-1.mol-1 (Bard) #Pu(g)
B(g) ; B = B ; log_k	-2.66 ; delta_h	-7.21 ; #H°f = 562.7 kJ.mol-1 (Bard) ; #S° = 153.34 J.K-1.mol-1 (Bard) #B(g)
# Al(g) ; Al = Al ; log_k	-2.57 ; delta_h	-3.53 ; #H°f = 329.7 kJ.mol-1 (Bard) ; #S° = 164.44 J.K-1.mol-1 (Bard) #Al(g)
# Be(g) ; Be = Be ; log_k	-2.61 ; delta_h	-5.20 ; #H°f = 324.3 kJ.mol-1 (Bard) ; #S° = 136.16 J.K-1.mol-1 (Bard) #Be(g)
Mg(g) ; Mg = Mg ; log_k	-2.58 ; delta_h	-4.15 ; #H°f = 147.1 kJ.mol-1 (Bard) ; #S° = 148.59 J.K-1.mol-1 (Bard) #Mg(g)
Ca(g) ; Ca = Ca ; log_k	-2.66 ; delta_h	-7.12 ; #H°f = 178.2 kJ.mol-1 (Bard) ; #S° = 154.88 J.K-1.mol-1 (Bard) #Ca(g)
Sr(g) ; Sr = Sr ; log_k	-2.72 ; delta_h	-9.13 ; #H°f = 164.4 kJ.mol-1 (Bard) ; #S° = 164.51 J.K-1.mol-1 (Bard) #Sr(g)
Ba(g) ; Ba = Ba ; log_k	-2.76 ; delta_h	-10.76 ; #H°f = 180 kJ.mol-1 (Bard) ; #S° = 170.13 J.K-1.mol-1 (Bard) #Ba(g)
# Ra(g) ; Ra = Ra ; log_k	-2.86 ; delta_h	-14.78 ; #H°f = 159 kJ.mol-1 (Bard) ; #S° = 176.36 J.K-1.mol-1 (Bard) #Ra(g)
Li(g) ; Li = Li ; log_k	-2.63 ; delta_h	-5.91 ; #H°f = 160.71 kJ.mol-1 (Bard) ; #S° = 138.67 J.K-1.mol-1 (Bard) #Li(g)
Na(g) ; Na = Na ; log_k	-2.69 ; delta_h	-8.25 ; #H°f = 107.68 kJ.mol-1 (Bard) ; #S° = 153.61 J.K-1.mol-1 (Bard) #Na(g)
K(g) ; K = K ; log_k	-2.78 ; delta_h	-11.81 ; #H°f = 89.16 kJ.mol-1 (Bard) ; #S° = 160.20 J.K-1.mol-1 (Bard) #K(g)
# Rb(g) ; Rb = Rb ; log_k	-2.82 ; delta_h	-13.02 ; #H°f = 85.81 kJ.mol-1 (Bard) ; #S° = 169.99 J.K-1.mol-1 (Bard) #Rb(g)
# Cs(g) ; Cs = Cs ; log_k	-2.88 ; delta_h	-15.49 ; #H°f = 78.78 kJ.mol-1 (Bard) ; #S° = 175.49 J.K-1.mol-1 (Bard) #Cs(g)
#Fr(g) ; Fr = Fr ; log_k	-2.77 ; delta_h	-11.39 ; #H°f = 0 kJ.mol-1 (Bard) ; #S° = 0.00 J.K-1.mol-1 (Bard) #Fr(g)
# He(g) ; He = He ; log_k	-2.36 ; delta_h	1.16 ; #H°f = 0 kJ.mol-1 (Bard) ; #S° = 126.15 J.K-1.mol-1 (Bard) #He(g)
# Ne(g) ; Ne = Ne ; log_k	-2.68 ; delta_h	-7.71 ; #H°f = 0 kJ.mol-1 (Bard) ; #S° = 146.33 J.K-1.mol-1 (Bard) #Ne(g)
# Ar(g) ; Ar = Ar ; log_k	-2.74 ; delta_h	-9.89 ; #H°f = 0 kJ.mol-1 (Bard) ; #S° = 154.84 J.K-1.mol-1 (Bard) #Ar(g)
# Kr(g) ; Kr = Kr ; log_k	-2.77 ; delta_h	-11.39 ; #H°f = 0 kJ.mol-1 (Bard) ; #S° = 164.98 J.K-1.mol-1 (Bard) #Kr(g)
# Xe(g) ; Xe = Xe ; log_k	-2.88 ; delta_h	-15.16 ; #H°f = 0 kJ.mol-1 (Bard) ; #S° = 169.68 J.K-1.mol-1 (Bard) #Xe(g)
# Rn(g) ; Rn = Rn ; log_k	-2.77 ; delta_h	-11.39 ; #H°f = 0 kJ.mol-1 (Bard) ; #S° = 176.21 J.K-1.mol-1 (Bard) #Rn(g)
# Am(g) ; Am = Am ; log_k	-2.77 ; delta_h	-11.39 ; #H°f = 284.1 kJ.mol-1 (Bard) ; #S° = 194.40 J.K-1.mol-1 (Bard) #Am(g)
# Cm(g) ; Cm = Cm ; log_k	-2.77 ; delta_h	-11.39 ; #H°f = 387.4 kJ.mol-1 (Bard) ; #S° = 197.00 J.K-1.mol-1 (Bard) #Cm(g)




Anhydrite
	Ca[S][O]4 = Ca+2 + [S][O]4-2
	log_k	   -4.362
	-anal  87.836  0  -3136.79  -32.953 # 50 - 160oC, 1 - 1e3 atm, anhydrite dissolution, Blount and Dickson, 1973, Am. Mineral. 58, 323.
	-Vm 46.1 # 136.14 / 2.95
Aragonite
	CaC[O]3 = C[O]3-2 + Ca+2
	log_k	   -8.336
	delta_h -2.589 kcal
	-analytic     -171.8607   -.077993    2903.293    71.595
	-Vm 34.04
Arcanite
	K2[S][O]4  =  [S][O]4-- + 2 K+
	log_k	   -1.776; -delta_h 5 kcal # Freyer and Voigt, 2004, GCA 68, 307
#	-analytic     2.823     0.0	 -1371.2
	-Vm 65.5
Barite
	Ba[S][O]4 = Ba+2 + [S][O]4-2
	log_k	-9.97
	delta_h  6.35 kcal
	-analytic	136.035	0.0	-7680.41	-48.595
	-Vm 51.9
Bischofite
	MgCl2:6[H]2[O]  =  Mg++ + 2 Cl- + 6 [H]2[O]
	log_k	   4.455
	-analytic     3.524     0.0	 277.6
	Vm 127.1
Bloedite
	Na2Mg([S][O]4)2:4[H]2[O]  = Mg++ + 2 Na+ + 2 [S][O]4-- + 4 [H]2[O]
	log_k	   -2.347
	-delta_H	0	     # Not possible to calculate enthalpy of reaction	Bloedite
	Vm 147
Brucite
	Mg([O][H])2  = Mg++ + 2 [O][H]-
	log_k	   -10.88
	-delta_H	4.85    kcal/mol
#	-analytic -1.0280e+002 -1.9759e-002 9.0180e+003 3.8282e+001 1.4075e+002
#     -Range:  0-300
	Vm 24.6
Burkeite
	Na6C[O]3([S][O]4)2  = C[O]3-2 + 2 [S][O]4-- + 6 Na+
	log_k	   -0.772
	Vm 152
Calcite
	CaC[O]3 = C[O]3-2 + Ca+2
	log_k	   -8.406
	delta_h -2.297 kcal
	-analytic     -171.8329    -0.077993    2839.319    71.595
	-Vm 36.9
Carnallite
	KMgCl3:6[H]2[O]  =  K+ + Mg++ + 3Cl- + 6[H]2[O]
	log_k	   4.330
	Vm 173.7
Celestite
	Sr[S][O]4 = Sr+2 + [S][O]4-2
	log_k	   -6.630
	-analytic  -7.14 6.11E-03  75 0 0 -1.79E-05  # Howell et al., 1992, JCED 37, 464.
	-Vm 46.4
Dolomite
	CaMg(C[O]3)2 = Ca+2 + Mg+2 + 2 C[O]3-2
	log_k	   -17.083
	delta_h -9.436 kcal
	-Vm 64.5
Epsomite
	Mg[S][O]4:7[H]2[O]  =  Mg+2 + [S][O]4-2 + 7 [H]2[O]
	log_k	   -1.881
	-analytical   1.718     0.0	 -1073.
	Vm 147
Gaylussite
	CaNa2(C[O]3)2:5[H]2[O] = Ca+2 + 2 C[O]3-2 + 2 Na+ + 5 [H]2[O]
	log_k	   -9.421
Glaserite
	NaK3([S][O]4)2 =  Na+ + 3K+ + 2[S][O]4-2
	log_k	   -3.803
Glauberite
	Na2Ca([S][O]4)2  =  Ca+2 + 2 Na+ + 2 [S][O]4-2
	log_k	   -5.245
	Vm 99
Gypsum
	Ca[S][O]4:2[H]2[O] = Ca+2 + [S][O]4-2 + 2 [H]2[O]
	log_k	   -4.581
	delta_h -0.109 kcal
	-analytic     90.318    0.0	 -4213.    -32.641
	-Vm 73.9
Halite
	NaCl  =  Cl- + Na+
	log_k	   1.570
	-analytic -713.4616   -.1201241   37302.21    262.4583    -2106915.
	-Vm 27.1
Hexahydrite
	Mg[S][O]4:6[H]2[O]  =  Mg+2 + [S][O]4-2 + 6 [H]2[O]
	log_k	   -1.635
	-analytic     -62.666   0.0	 1828.     22.187
	Vm 132
Kainite
	KMgCl[S][O]4:3[H]2[O]  =  Cl- + K+ + Mg+2 + [S][O]4-2 + 3 [H]2[O]
	log_k	   -0.193
Kalicinite
	K[H]C[O]3  =  K+ + [H]+ + C[O]3-2
	log_k	   -10.058
Kieserite
	Mg[S][O]4:[H]2[O]  =  Mg+2 + [S][O]4-2 + [H]2[O]
	log_k	   -0.123
	Vm 53.8
Labile_[S]
	Na4Ca([S][O]4)3:2[H]2[O] = 4Na+ + Ca+2 + 3[S][O]4-2 + 2[H]2[O]
	log_k	   -5.672
Leonhardite
	Mg[S][O]4:4[H]2[O] = Mg+2 + [S][O]4-2 + 4[H]2[O]
	log_k	   -0.887
Leonite
	K2Mg([S][O]4)2:4[H]2[O]  =  Mg+2 + 2 K+ + 2 [S][O]4-2 + 4 [H]2[O]
	log_k	   -3.979
Magnesite
	MgC[O]3 =  C[O]3-2 + Mg+2
	log_k	  -7.834
	delta_h	-6.169
	Vm 28.3
Mirabilite
	Na2[S][O]4:10[H]2[O]  =  [S][O]4-2 + 2 Na+ + 10 [H]2[O]
	log_k	   -1.214
	-analytic     -3862.234   -1.19856    93713.54    1577.756    0.
	Vm 216
Misenite
	K8[H]6([S][O]4)7  =  6 [H]+ + 7 [S][O]4-2 + 8 K+
	log_k	   -10.806
Nahcolite
	Na[H]C[O]3  =  C[O]3-2 + [H]+ + Na+
	log_k	   -10.742
Natron
	Na2C[O]3:10[H]2[O] = C[O]3-2 + 2 Na+ + 10.0000 [H]2[O]
	log_k	   -0.825
Nesquehonite
	MgC[O]3:3[H]2[O] =  C[O]3-2 + Mg+2 + 3 [H]2[O]
	log_k	   -5.167
Pentahydrite
	Mg[S][O]4:5[H]2[O]  =  Mg+2 + [S][O]4-2 + 5 [H]2[O]
	log_k	   -1.285
Pirssonite
	Na2Ca(C[O]3)2:2[H]2[O] = 2Na+ + Ca+2 + 2C[O]3-2 + 2 [H]2[O]
	log_k	   -9.234
Polyhalite
	K2MgCa2([S][O]4)4:2[H]2[O]  = 2K+ +  Mg+2 + 2 Ca+2 + 4[S][O]4-2 + 2 [H]2[O]
	log_k	   -13.744
	Vm 218
Portlandite
	Ca([O][H])2 =  Ca+2 + 2 [O][H]-
	log_k	   -5.190
Schoenite
	K2Mg([S][O]4)2:6[H]2[O]  =  2K+ + Mg+2 + 2 [S][O]4-2 + 6[H]2[O]
	log_k	   -4.328
Sylvite
	KCl  = K+ + Cl-
	log_k	   0.900
	-analytic     3.984     0.0	 -919.55
	Vm 37.5
Syngenite
	K2Ca([S][O]4)2:[H]2[O]  =  2K+ + Ca+2 + 2[S][O]4-2 + [H]2[O]
	log_k	   -7.448
Thenardite
	Na2[S][O]4 = 2 Na+ + [S][O]4-2
	-log_k -0.35
	Vm 52.9
Trona
	Na3[H](C[O]3)2:2[H]2[O] =  3 Na+ + [H]+ + 2C[O]3-2 + 2[H]2[O]
	log_k	   -11.384
	Vm 106
Borax
	Na2(B4[O]5([O][H])4):8[H]2[O] + 2 [H]+  =  4 B([O][H])3 + 2 Na+ +  5 [H]2[O]
	log_k	   12.464
	Vm 223
Boric_acid,s
	B([O][H])3  =  B([O][H])3
	log_k	   -0.030
KB5[O]8:4[H]2[O]
	KB5[O]8:4[H]2[O] + 3[H]2[O] + [H]+ = 5B([O][H])3 + K+
	log_k	   4.671
K2B4[O]7:4[H]2[O]
	K2B4[O]7:4[H]2[O] + [H]2[O] + 2[H]+ = 4B([O][H])3 + 2K+
	log_k	   13.906
NaB[O]2:4[H]2[O]
	NaB[O]2:4[H]2[O] + [H]+ = B([O][H])3 + Na+ + 3[H]2[O]
	log_k	   9.568
NaB5[O]8:5[H]2[O]
	NaB5[O]8:5[H]2[O] + 2[H]2[O] + [H]+ = 5B([O][H])3 + Na+
	log_k	   5.895
Teepleite
	Na2B([O][H])4Cl + [H]+ = B([O][H])3 + 2Na+ + Cl- + [H]2[O]
	log_k	   10.840
C[O]2(g)
	C[O]2 = C[O]2
	log_k	-1.468
	delta_h -4.776 kcal
	-analytic  109.534  1.9913e-2  -6986.04  -40.83  669370
	-T_c  304.2 # critical T, K
	-P_c   72.80 # critical P, atm
	-Omega 0.225 # acentric factor
[H]2[O](g)
	[H]2[O] = [H]2[O]
	log_k  1.506; delta_h -44.03 kJ
	-T_c  647.3 # critical T, K
	-P_c  217.60 # critical P, atm
	-Omega 0.344 #  acentric factor
	-analytic   -16.5066 -2.0013E-3  2710.7  3.7646  0 2.24E-6
# redox-uncoupled gases
Oxg(g)
	Oxg = Oxg
	-analytic -7.5001 7.8981e-003 0.0 0.0 2.0027e+005
	T_c  154.6 ; -P_c   49.80 ; -Omega 0.021
Hdg(g)
	Hdg = Hdg
	-analytic   -9.3114e+000    4.6473e-003   -4.9335e+001    1.4341e+000    1.2815e+005
	-T_c  33.2 ; -P_c   12.80 ; -Omega 0.225
Ntg(g)
	Ntg = Ntg
	-analytic -58.453 1.81800E-03  3199  17.909 -27460
	T_c  126.2 ; -P_c   33.50 ; -Omega 0.039
Mtg(g)
	Mtg = Mtg
	-analytic -2.4027e+001 4.7146e-003 3.7227e+002 6.4264e+000 2.3362e+005
	T_c  190.6 ; -P_c   45.40 ; -Omega 0.008
[H]2Sg(g)
	[H]2Sg  =  [H]+ + [H]Sg-
	-analytic -9.7354e+001 -3.1576e-002 1.8285e+003 3.7440e+001 2.8560e+001
	T_c  373.2 ; -P_c  88.20 ; -Omega 0.1

PITZER
-B0
  B([O][H])4-     K+      0.035
  B([O][H])4-     Na+    -0.0427
  B3[O]3([O][H])4-  K+     -0.13
  B3[O]3([O][H])4-  Na+    -0.056
  B4[O]5([O][H])4-2 K+     -0.022
  B4[O]5([O][H])4-2 Na+    -0.11
  Ba+2      Br-       0.31455       0           0          -0.33825E-3
  Ba+2      Cl-       0.2628        0           0           0.6405E-3
  Ba+2      [O][H]-       0.17175
  Br-       [H]+        0.1960        0           0          -2.049E-4
  Br-       K+        0.0569        0           0           7.39E-4
  Br-       Li+       0.1748        0           0          -1.819E-4
  Br-       Mg+2      0.4327        0           0          -5.625E-5
  Br-       Na+       0.0973        0           0           7.692E-4
  Br-       Sr+2      0.331125      0           0          -0.32775E-3
  Ca+2      Br-       0.3816        0           0          -5.2275E-4
  Ca+2      Cl-       0.3159        0           0          -1.725E-4
  Ca+2      [H]C[O]3-     0.4
  Ca+2      [H][S][O]4-     0.2145
  Ca+2      [O][H]-      -0.1747
  Ca+2      [S][O]4-2     0.2
  CaB([O][H])4+   Cl-       0.12
  Cl-       Fe+2      0.335925
  Cl-       [H]+        0.1775        0           0          -3.081E-4
  Cl-       K+        0.04835       0           0           5.794E-4
  Cl-       Li+       0.1494        0           0          -1.685E-4
  Cl-       Mg+2      0.35235       0           0          -1.943E-4
  Cl-       MgB([O][H])4+  0.16
  Cl-       Mg[O][H]+    -0.1
  Cl-       Mn+2      0.327225
  Cl-       Na+       0.0765     -777.03     -4.4706        0.008946   -3.3158E-6
  Cl-       Sr+2      0.2858        0           0           0.717E-3
  C[O]3-2     K+        0.1488        0           0           1.788E-3
  C[O]3-2     Na+       0.0399        0           0           1.79E-3
  Fe+2      [H][S][O]4-     0.4273
  Fe+2      [S][O]4-2     0.2568
  [H]+        [H][S][O]4-     0.2065
  [H]+        [S][O]4-2     0.0298
  [H]C[O]3-     K+        0.0296        0           0           0.996E-3
  [H]C[O]3-     Mg+2      0.329
  [H]C[O]3-     Na+       0.0277        0           0           1.00E-3
  [H]C[O]3-     Sr+2      0.12
  [H][S][O]4-     K+       -0.0003
  [H][S][O]4-     Mg+2      0.4746
  [H][S][O]4-     Na+       0.0454
  K+        [O][H]-       0.1298
  K+        [S][O]4-2     0.04995       0           0           1.44E-3
  Li+       [O][H]-       0.015
  Li+       [S][O]4-2     0.136275      0           0           0.5055E-3
  Mg+2      [S][O]4-2     0.221         0           0          -0.69E-3
  Mn+2      [S][O]4-2     0.2065
  Na+       [O][H]-       0.0864        0           0           7.00E-4
  Na+       [S][O]4-2     0.01958       0           0           2.367E-3
  [S][O]4-2     Sr+2      0.200         0           0          -2.9E-3
-B1
  B([O][H])4-   K+        0.14
  B([O][H])4-   Na+       0.089
  B3[O]3([O][H])4-  Na+    -0.910
  B4[O]5([O][H])4-2 Na+    -0.40
  Ba+2      Br-       1.56975       0           0           6.78E-3
  Ba+2      Cl-       1.49625       0           0           3.2325E-3
  Ba+2      [O][H]-       1.2
  Br-       [H]+        0.3564        0           0           4.467E-4
  Br-       K+        0.2212        0           0           17.40E-4
  Br-       Li+       0.2547        0           0           6.636E-4
  Br-       Mg+2      1.753         0           0           3.8625E-3
  Br-       Na+       0.2791        0           0           10.79E-4
  Br-       Sr+2      1.7115        0           0           6.5325E-3
  Ca+2      Br-       1.613         0           0           6.0375E-3
  Ca+2      Cl-       1.614         0           0           3.9E-3
  Ca+2      [H]C[O]3-     2.977
  Ca+2      [H][S][O]4-     2.53
  Ca+2      [O][H]-      -0.2303
  Ca+2      [S][O]4-2     3.1973        0           0           5.46E-2
  Cl-       Fe+2      1.53225
  Cl-       [H]+        0.2945        0           0           1.419E-4
  Cl-       K+        0.2122        0           0           10.71E-4
  Cl-       Li+       0.3074        0           0           5.366E-4
  Cl-       Mg+2      1.6815        0           0           3.6525E-3
  Cl-       Mg[O][H]+     1.658
  Cl-       Mn+2      1.55025
  Cl-       Na+       0.2664        0           0           6.1608E-5   1.0715E-6
  Cl-       Sr+2      1.667         0           0           2.8425E-3
  C[O]3-2     K+        1.43          0           0           2.051E-3
  C[O]3-2     Na+       1.389         0           0           2.05E-3
  Fe+2      [H][S][O]4-     3.48