# t_h_anhydr
# Data source:
# Florián, J., and A. Warshel. "ChemSol, version 2.1." University of Southern California, Los Angeles (1999).
# Bard, A. J., Parsons, R., Jordan, J. (editors), Standard potentials in aqueous solution, Marcel Dekker, New York 1985.
# Dick, J. M., CHNOSZ: Thermodynamic calculations and diagrams for geochemistry, Frontiers in Earth Science, 7 (2019) 180.
# Kobayashi, K., Suzuki T.S, Electron Comm Jpn. 2019;102:12–16.
# Shkol’nikov, E.V., Russian Journal of Physical Chemistry A 90(3) 2016.

#  $Id: wateq4f.dat 6895 2012-08-21 18:10:05Z dlpark $
# Revised arsenic data from Archer and Nordstrom (2002)

SOLUTION_MASTER_SPECIES
[C]     [C]     0       [C]    12.0111
[H]	[H]	0	[H]	1.008

H        H+             -1.     1.008           1.008
H(0)     H2             0.0     1.008
H(1)     H+             -1.     1.008

[O]        [O]            0.0     [O]           16.00

O        H2O            0.0     16.00           16.00
O(-2)    H2O            0.0     18.016
O(0)     O2             0.0     16.00

Ag       Ag+            0.0     107.868         107.868
Al       Al+3           0.0     26.9815         26.9815
Alkalinity C[O]3-2        1.0     50.05           50.05
As       [H]3As[O]4        -1.0     74.9216         74.9216
As(+3)   [H]3As[O]3         0.0     74.9216         74.9216
As(+5)   [H]3As[O]4        -1.0     74.9216
B        [H]3B[O]3          0.0     10.81           10.81
Ba       Ba+2           0.0     137.34          137.34
Br       Br-            0.0     79.904          79.904
C        C[O]3-2          2.0     61.0173         12.0111
C(+4)    C[O]3-2          2.0     61.0173
C(-4)    C[H]4            0.0     16.042
Ca       Ca+2           0.0     40.08           40.08
Cd       Cd+2           0.0     112.4           112.4
Cl       Cl-            0.0     35.453          35.453
Cs       Cs+            0.0     132.905         132.905
Cu       Cu+2           0.0     63.546          63.546
Cu(+1)   Cu+1           0.0     63.546          
Cu(+2)   Cu+2           0.0     63.546          
E        e-             0.0     0.0             0.0
[F]        [F]-             0.0     18.9984         18.9984
Fe       Fe+2           0.0     55.847          55.847
Fe(+2)   Fe+2           0.0     55.847
Fe(+3)   Fe+3           -2.0    55.847
Fulvate  Fulvate-2      0.0     650.            650.
Humate   Humate-2       0.0     2000.           2000.
I        I-             0.0     126.9044        126.9044
K        K+             0.0     39.102          39.102
Li       Li+            0.0     6.939           6.939
Mg       Mg+2           0.0     24.312          24.312
Mn       Mn+2           0.0     54.938          54.938
Mn(2)    Mn+2           0.0     54.938
Mn(3)    Mn+3           0.0     54.938
Mn(6)    Mn[O]4-2         0.0     54.938
Mn(7)    Mn[O]4-          0.0     54.938
[N]        [N][O]3-           0.0     14.0067         14.0067
[N](-3)    [N][H]4+           0.0     14.0067
[N](0)     [N]2             0.0     14.0067
[N](+3)    [N][O]2-           0.0     14.0067
[N](+5)    [N][O]3-           0.0     14.0067
Na       Na+            0.0     22.9898         22.9898
Ni       Ni+2           0.0     58.71           58.71
P        P[O]4-3          2.0     30.9738         30.9738
Pb       Pb+2           0.0     207.19          207.19
Rb       Rb+            0.0     85.47           85.47
[S]        [S][O]4-2          0.0     96.0616         32.064
[S](-2)    [H]2[S]            0.0     32.064
[S](6)     [S][O]4-2          0.0     96.0616
Se       Se[O]4-2         0.0     78.96           78.96
Se(-2)   [H]Se-           0.0     78.96
Se(4)    Se[O]3-2         0.0     78.96
Se(6)    Se[O]4-2         0.0     78.96
Si       [H]4Si[O]4         0.0     60.0843         28.0843
Sr       Sr+2           0.0     87.62           87.62
Zn       Zn+2           0.0     65.37           65.37
U        U[O]2+2          0.0     238.0290        238.0290
U(3)     U+3            0.0     238.0290        238.0290
U(4)     U+4            0.0     238.0290        238.0290
U(5)     U[O]2+           0.0     238.0290        238.0290
U(6)     U[O]2+2          0.0     238.0290        238.0290

SOLUTION_SPECIES
[C] = [C]
[H] = [H]
log_k 0
[O] = [O]
log_k 0
0.5 O2 = O ; log_k	-41.3 ; delta_h	250.3
0.5 H2 = H			 ; log_k	-36.3	 ; delta_h	219.1
 # # H2O ve stavu (aq) je jen formalismus - bere se jako (l) - kvùli výpoètùm v režimu constrained equilibria, kde je jí tøeba explicitnì definovat ve fázi roztoku # 2 [H] + [O] = [H]2[O] ; log_k	  153.38 ; delta_h	   -970.93 ; #Gf°(l) =   -237.18 kJ.mol-1 (Bard-1985) #Hf°(l) =   -285.83 kJ.mol-1 (Bard-1985)  #[H]2[O](aq) # # opravena chyba - *(-1) # [H] = [H]+ + e- ; log_k	     35.61 ; delta_h	   -217.97 #Gf°(aq) =      0.00 kJ.mol-1 (Bard-1985) #Hf°(aq) =      0.00 kJ.mol-1 (Bard-1985) #[H]+(aq) # D = D+ + e- ; log_k	     36.39 #Gf°(aq) =     -1.20 kJ.mol-1 (Bard-1985) #D+(aq)
2 [H] + [O] = [H]2[O] ; 	log_k	  153.37 ; 	delta_h	   -958.08 #	Gf°(l) =   -237.18 kJ.mol-1 (Bard-1985) #	Hf°(l) =   -285.83 kJ.mol-1 (Bard-1985) #H2O(aq)
[H] = [H]+ + e-  ; log_k	     38.05 ; delta_h	   -219.54 ; #Gf°(aq) =      0.00 kJ.mol-1 (Bard-1985) ; #Hf°(aq) =      0.00 kJ.mol-1 (Bard-1985) ; #[H]+(aq)
[O] + [H] + e- = [O][H]- ; log_k	    109.66 ; delta_h	   -696.43 ; #Gf°(aq) =   -157.29 kJ.mol-1 (Bard-1985) ; #Hf°(aq) =   -229.99 kJ.mol-1 (Bard-1985) ; #[O][H]-(aq)
#O2 secondary master species
        2H2O = O2 + 4H+ + 4e- 
        log_k           -86.08
        delta_h 134.79 kcal

#H2 secondary master species
        2 H+ + 2 e- = H2
        log_k           -3.15
        delta_h -1.759 kcal
Ag+ + e- = Ag ; log_k	     -32.16 ; delta_h	   172.55 # Bard
Al+3 + 3 e- = Al ; log_k	    -137.60 ; delta_h	   853.87 # Bard
[H]2As[O]3- = As + 2 [H] + 3 [O] + e- ; log_k	    -359.68 ; delta_h	  2183.69 # Bard
[H]3B[O]3 = B + 3 [H] + 3 [O] ; log_k	    -509.60 ; delta_h	  3027.13 # Bard
Ba+2 + 2 e- = Ba ; log_k	    -126.58 ; delta_h	   706.88 # Bard
Br- = Br + e- ; log_k	     -35.51 ; delta_h	   219.20 # Bard
C[O]3-2 = C + 3 [O] + 2 e- ; log_k	    -344.96 ; delta_h	  2124.93 # Bard
Ca+2 + 2 e- = Ca ; log_k	    -124.92 ; delta_h	   713.91 # Bard
Cd+2 + 2 e- = Cd ; log_k	    -29.77 ; delta_h	   182.88 # Bard
Cl- = Cl + e- ; log_k	     -44.28 ; delta_h	   276.09 # Bard
Cs+ + e- = Cs ; log_k	     -60.89 ; delta_h	   308.57 # Bard
Cu+2 + 2 e- = Cu ; log_k	     -43.40 ; delta_h	   268.05 # Bard
[F]- = [F] + e- ; log_k	     -62.37 ; delta_h	   404.16 # Bard
Fe+2 + 2 e- = Fe ; log_k	     -81.35 ; delta_h	   501.12 # Bard
I- = I + e- ; log_k	     -24.29 ; delta_h	   145.45 # Bard
K+ + e- = K ; log_k	     -62.86 ; delta_h	   328.63 # Bard
Li+ + e- = Li ; log_k	     -76.29 ; delta_h	   431.92 # Bard
Mg+2 + 2 e- = Mg ; log_k	    -102.05 ; delta_h	   609.57 # Bard
Mn+2 + 2 e- = Mn ; log_k	     -84.35 ; delta_h	   496.63 # Bard
[N][H]3 = [N] + 3 [H] ; log_k	    -202.29 ; delta_h	  1208.38 # Bard
Na+ + e- = Na ; log_k	     -62.02 ; delta_h	   338.73 # Bard
Ni+2 + 2 e- = Ni ; log_k	     -78.04 ; delta_h	   491.09 # Bard
[H]2P[O]4- = P + 2 [H] + 4 [O] + e- ; log_k	    -494.39 ; delta_h	  3023.45 # Bard
Pb+2 + 2 e- = Pb ; log_k	     -35.31 ; delta_h	   185.33 # Bard
Rb+ + e- = Rb ; log_k	     -61.56 ; delta_h	   313.86 # Bard
[H]2[S] = [S] + 2 [H] ; log_k	    -125.53 ; delta_h	   744.81 # Bard
[H]Se- = Se + [H] + e- ; log_k	     -65.90 ; delta_h	   419.32 # Bard
[H]4Si[O]4 = Si + 4 [O] + 4 [H] ; log_k	    -626.81 # Bard
Sr+2 + 2 e- = Sr ; log_k	    -123.67 ; delta_h	   701.07 # Bard
U+4 + 4 e- = U ; log_k	    -181.85 ; delta_h	  1115.41 # Bard
Zn+2 + 2 e- = Zn ; log_k	     -45.00 ; delta_h	   280.80 # Bard


	
	
#H+ primary master species
        H+ = H+
        log_k           0.0
        -gamma    9.0    0.0

#e- primary master species
        e- = e-
        log_k           0.0

#H2O primary master species
        H2O = H2O
        log_k           0.0

#Ag+ primary master species
        Ag+ = Ag+
        log_k           0.0

#Al+3 primary master species
        Al+3 = Al+3
        log_k           0.0
        -gamma  9.0     0.0 

#[H]3As[O]4 primary master species
        [H]3As[O]4 = [H]3As[O]4
        log_k           0.0

#[H]3B[O]3 primary master species
        [H]3B[O]3 = [H]3B[O]3
        log_k           0.0

#Ba+2 primary master species
        Ba+2 = Ba+2
        log_k           0.0
        -gamma  5.0     0.0 

#Br- primary master species
        Br- = Br-
        log_k           0.0

#C[O]3-2 primary master species
        C[O]3-2 = C[O]3-2
        log_k           0.0
        -gamma  5.4     0.0

#Ca+2 primary master species
        Ca+2 = Ca+2
        log_k           0.0
        -gamma  5.0     0.165

#Cd+2 primary master species
        Cd+2 = Cd+2
        log_k           0.0

#Cl- primary master species
        Cl- = Cl-
        log_k           0.0
        -gamma  3.5     0.015

#Cs+ primary master species
        Cs+ = Cs+
        log_k           0.0

#Cu+2 primary master species
        Cu+2 = Cu+2
        log_k           0.0
        -gamma  6.0     0.0

#[F]- primary master species
        [F]- = [F]-
        log_k           0.0
        -gamma  3.5     0.0 

#Fe+2 primary master species
        Fe+2 = Fe+2
        log_k           0.0
        -gamma  6.0     0.0
        
#Fulvate-2 primary master species
        Fulvate-2 = Fulvate-2
        log_k           0.0

#Humate-2 primary master species
        Humate-2 = Humate-2
        log_k           0.0

#I- primary master species
        I- = I-
        log_k           0.0

#K+ primary master species
        K+ = K+
        log_k           0.0
        -gamma  3.5     0.015

#Li+ primary master species
        Li+ = Li+
        log_k           0.0
        -gamma  6.0     0.0 

#Mg+2 primary master species
        Mg+2 = Mg+2
        log_k           0.0
        -gamma  5.5     0.200

#Mn+2 primary master species
        Mn+2 = Mn+2
        log_k           0.0
        -gamma  6.0     0.0

#[N][O]3- primary master species
        [N][O]3- = [N][O]3-
        log_k           0.0
        -gamma  3.0     0.0 

#Na+ primary master species
        Na+ = Na+
        log_k           0.0
        -gamma  4.0     0.075

#Ni+2 primary master species
        Ni+2 = Ni+2
        log_k           0.0

#P[O]4-3 primary master species
        P[O]4-3 = P[O]4-3
        log_k           0.0
        -gamma  5.0     0.0 

#Pb+2 primary master species
        Pb+2 = Pb+2
        log_k           0.0

#Rb+ primary master species
        Rb+ = Rb+
        log_k           0.0

#[S][O]4-2 primary master species
        [S][O]4-2 = [S][O]4-2
        log_k           0.0
        -gamma  5.0     -0.040

#Se[O]4-2 primary master species
        Se[O]4-2 = Se[O]4-2
        log_k           0.0

#[H]4Si[O]4 primary master species
        [H]4Si[O]4 = [H]4Si[O]4
        log_k           0.0

#Sr+2 primary master species
        Sr+2 = Sr+2
        log_k           0.0
        -gamma  5.26    0.121

#U[O]2+2 primary master species
        U[O]2+2 = U[O]2+2
        log_k           0.0

#Zn+2 primary master species
        Zn+2 = Zn+2
        log_k           0.0
        -gamma  6.0     0.0

#Fe+3 secondary master species  0
        Fe+2 = Fe+3 + e- 
        log_k           -13.020
        delta_h 9.680 kcal
        -gamma  9.0     0.0

#Fe[O][H]+2              1
        Fe+3 + [H]2[O] = Fe[O][H]+2 + [H]+ 
        log_k           -2.19
        delta_h 10.4 kcal
        -gamma  5.0     0.0        

#Fe[O][H]+               2
        Fe+2 + [H]2[O] = Fe[O][H]+ + [H]+ 
        log_k           -9.5
        delta_h 13.2 kcal
        -gamma  5.0     0.0   

#Fe([O][H])3-            3
        Fe+2 + 3[H]2[O] = Fe([O][H])3- + 3[H]+ 
        log_k           -31.0
        delta_h 30.3 kcal
        -gamma  5.0     0.0   

#Fe[S][O]4+              4
        Fe+3 + [S][O]4-2 = Fe[S][O]4+ 
        log_k           4.04
        delta_h 3.91 kcal
        -gamma  5.0     0.0 

#FeCl+2              5
        Fe+3 + Cl- = FeCl+2 
        log_k           1.48
        delta_h 5.6 kcal
        -gamma  5.0     0.0 

#FeCl2+              6
        Fe+3 + 2Cl- = FeCl2+ 
        log_k           2.13

#FeCl3               7
        Fe+3 + 3Cl- = FeCl3 
        log_k           1.13

#Fe[S][O]4               8
        Fe+2 + [S][O]4-2 = Fe[S][O]4 
        log_k           2.25
        delta_h 3.23 kcal

#[H]3Si[O]4-             13
        [H]4Si[O]4 = [H]3Si[O]4- + [H]+ 
        log_k           -9.83
        delta_h 6.12 kcal
        -analytical     -302.3724       -0.050698       15669.69        108.18466       -1119669.0
        -gamma  4.0     0.0 

#[H]2Si[O]4-2            14
        [H]4Si[O]4 = [H]2Si[O]4-2 + 2[H]+
        log_k           -23.0
        delta_h 17.6 kcal
        -analytical -294.0184   -0.07265        11204.49        108.18466       -1119669.0
        -gamma  5.4     0.0 

#[H]P[O]4-2              15
        [H]+ + P[O]4-3 = [H]P[O]4-2
        log_k           12.346
        delta_h -3.53 kcal
        -gamma  5.0     0.0 

#[H]2P[O]4-              16
        2[H]+ + P[O]4-3 = [H]2P[O]4-
        log_k           19.553
        delta_h -4.52 kcal
        -gamma  5.4     0.0 

#Mg[F]+                22
        Mg+2 + [F]- = Mg[F]+ 
        log_k           1.82
        delta_h 3.2 kcal
        -gamma  4.5     0.0 

#Ca[S][O]4               23
        Ca+2 + [S][O]4-2 = Ca[S][O]4 
        log_k           2.3
        delta_h 1.65 kcal

#Mg[O][H]+               24
        Mg+2 + [H]2[O] = Mg[O][H]+ + [H]+ 
        log_k           -11.44
        delta_h 15.952 kcal
        -gamma  6.5     0.0 

#[H]3B[O]3               25
        [H]3B[O]3 = [H]2B[O]3- + [H]+
        log_k           -9.24
        delta_h 3.224 kcal
#       -analytical 24.3919    0.012078   -1343.9    -13.2258
        -gamma  2.5     0.0 

#[N][H]3                 26
        [N][H]4+ = [N][H]3 + [H]+ 
        log_k           -9.252
        delta_h 12.48 kcal
        -analytic    0.6322    -0.001225    -2835.76
        -gamma  2.5     0.0 

#Na[H]P[O]4-             30
        Na+ + [H]P[O]4-2 = Na[H]P[O]4-
        log_k           0.29
        -gamma  5.4     0.0 

#K[H]P[O]4-              32
        K+ + [H]P[O]4-2 = K[H]P[O]4-
        log_k           0.29
        -gamma  5.4     0.0 

#Mg[H]P[O]4              33
        Mg+2 + [H]P[O]4-2 = Mg[H]P[O]4 
        log_k           2.87
        delta_h 3.3 kcal

#Ca[H]P[O]4              34
        Ca+2 + [H]P[O]4-2 = Ca[H]P[O]4 
        log_k           2.739
        delta_h 3.3 kcal

#C[H]4 secondary master species
        C[O]3-2 + 10 [H]+ + 8 e- = C[H]4 + 3 [H]2[O]
        log_k           41.071
        delta_h -61.039  kcal

#[H]2C[O]3               35
#       [H]C[O]3- + [H]+ = [H]2C[O]3 
#       log_k           6.351
#       delta_h -2.247 kcal
#       -analytical     356.3094        0.06091960      -21834.37       -126.8339       1684915.0

#C[O]2     could be used instead of [H]2C[O]3
        C[O]3-2 + 2 [H]+ = C[O]2 + [H]2[O]
        log_k           16.681
        delta_h -5.738 kcal
        -analytical     464.1965       0.09344813  -26986.16    -165.75951      2248628.9

#[H]C[O]3-               68
        [H]+ + C[O]3-2 = [H]C[O]3- 
        log_k           10.329
        delta_h -3.561 kcal
        -analytical     107.8871        0.03252849      -5151.79        -38.92561       563713.9
        -gamma  5.4     0.0

#NaC[O]3-              69
        Na+ + C[O]3-2 = NaC[O]3- 
        log_k           1.27
        delta_h 8.91 kcal
        -gamma  5.4     0.0 

#Na[H]C[O]3              70
        Na+ + [H]C[O]3- = Na[H]C[O]3 
        log_k           -0.25

#Na[S][O]4-              71
        Na+ + [S][O]4-2 = Na[S][O]4-
        log_k           0.7
        delta_h 1.12 kcal
        -gamma  5.4     0.0 

#K[S][O]4-               72
        K+ + [S][O]4-2 = K[S][O]4-
        log_k           0.85
        delta_h 2.25 kcal
        -analytical      3.106  0.0   -673.6
        -gamma  5.4     0.0 

#MgC[O]3               73
        Mg+2 + C[O]3-2 = MgC[O]3 
        log_k           2.98
        delta_h 2.713 kcal
        -analytical     0.9910          0.00667

#Mg[H]C[O]3+             74
        Mg+2 + [H]C[O]3- = Mg[H]C[O]3+
        log_k           1.07
        delta_h 0.79 kcal
        -analytical     -59.215         0.0     2537.455        20.92298        0.0
        -gamma  4.0     0.0 

#Mg[S][O]4               75
        Mg+2 + [S][O]4-2 = Mg[S][O]4 
        log_k           2.37
        delta_h 4.55 kcal

#Ca[O][H]+               76
        Ca+2 + [H]2[O] = Ca[O][H]+ + [H]+ 
        log_k           -12.78
        -gamma  6.0     0.0 

#Ca[H]C[O]3+             77
        Ca+2 + [H]C[O]3- = Ca[H]C[O]3+
        log_k           1.106
        delta_h 2.69 kcal
        -analytical     1209.12         0.31294         -34765.05       -478.782        0.0
        -gamma  6.0     0.0 

#CaC[O]3               78
        Ca+2 + C[O]3-2 = CaC[O]3 
        log_k           3.224
        delta_h 3.545 kcal
        -analytical     -1228.732       -0.299444       35512.75        485.818         0.0

#Sr[H]C[O]3+             79
        Sr+2 + [H]C[O]3- = Sr[H]C[O]3+ 
        log_k           1.18
        delta_h 6.05 kcal
        -analytical     -3.248  0.014867        0.0     0.0     0.0
        -gamma  5.4     0.0

#Al[O][H]+2              80
        Al+3 + [H]2[O] = Al[O][H]+2 + [H]+ 
        log_k           -5.0
        delta_h 11.49 kcal
        -analytical     -38.253         0.0     -656.27         14.327  0.0
        -gamma  5.4     0.0 

#Al([O][H])2+            81
        Al+3 + 2[H]2[O] = Al([O][H])2+ + 2[H]+ 
        log_k           -10.1
        delta_h 26.9 kcal
        -analytical     88.5    0.0     -9391.6         -27.121         0.0
        -gamma  5.4     0.0 

#Al([O][H])3             336
        Al+3 + 3[H]2[O] = Al([O][H])3 + 3[H]+ 
        log_k           -16.9
        delta_h 39.89 kcal
        -analytical     226.374         0.0     -18247.8        -73.597         0.0

#Al([O][H])4-            82
        Al+3 + 4[H]2[O] = Al([O][H])4- + 4[H]+ 
        log_k           -22.7
        delta_h 42.3 kcal
        -analytical     51.578          0.0     -11168.9        -14.865         0.0
        -gamma  4.5     0.0 

#Al[F]+2               83
        Al+3 + [F]- = Al[F]+2 
        log_k           7.0
        delta_h 1.06 kcal
        -gamma  5.4     0.0 

#Al[F]2+               84
        Al+3 + 2[F]- = Al[F]2+ 
        log_k           12.7
        delta_h 1.98 kcal
        -gamma  5.4     0.0 

#Al[F]3                85
        Al+3 + 3[F]- = Al[F]3 
        log_k           16.8
        delta_h 2.16 kcal

#Al[F]4-               86
        Al+3 + 4[F]- = Al[F]4- 
        log_k           19.4
        delta_h 2.2 kcal
        -gamma  4.5     0.0 

#Al[S][O]4+              87
        Al+3 + [S][O]4-2 = Al[S][O]4+
        log_k           3.5
        delta_h 2.29 kcal
        -gamma  4.5     0.0 

#Al([S][O]4)2-           88
        Al+3 + 2[S][O]4-2 = Al([S][O]4)2-
        log_k           5.0
        delta_h 3.11 kcal
        -gamma  4.5     0.0 

#[H][S][O]4-               89
        [H]+ + [S][O]4-2 = [H][S][O]4- 
        log_k           1.988
        delta_h 3.85 kcal
        -analytical     -56.889         0.006473        2307.9          19.8858         0.0
        -gamma  4.5     0.0 

#[H]2[S] secondary master species   90
        [S][O]4-2 + 10[H]+ + 8e- = [H]2[S] + 4[H]2[O] 
        log_k           40.644
        delta_h -65.44 kcal

#[H][S]-                 91
        [H]2[S] = [H][S]- + [H]+ 
        log_k           -6.994
        delta_h 5.3 kcal
        -analytical  11.17   -0.02386  -3279.0
        -gamma  3.5     0.0 

#[S]-2                 92
        [H][S]- = [S]-2 + [H]+ 
        log_k           -12.918
        delta_h 12.1 kcal
        -gamma  5.0     0.0 

#oxy                 93
#       0.5[H]2[O] = 0.25[O]2 + [H]+ + e- 
#       log_k           -20.780
#       delta_h 34.157000 kcal

#[O]2 secondary master species
        2[H]2[O] = [O]2 + 4[H]+ + 4e- 
        log_k           -86.08
        delta_h 134.79 kcal

#[H]2 secondary master species
        2 [H]+ + 2 e- = [H]2
        log_k           -3.15
        delta_h -1.759 kcal

#Fe([O][H])2+            102
        Fe+3 + 2[H]2[O] = Fe([O][H])2+ + 2[H]+ 
        log_k           -5.67
        delta_h 17.1 kcal
        -gamma  5.4     0.0 

#Fe([O][H])3             103
        Fe+3 + 3[H]2[O] = Fe([O][H])3 + 3[H]+ 
        log_k           -12.56
        delta_h 24.8 kcal

#Fe([O][H])4-            104
        Fe+3 + 4[H]2[O] = Fe([O][H])4- + 4[H]+ 
        log_k           -21.6
        delta_h 31.9 kcal
        -gamma  5.4     0.0 

#Fe([O][H])2             105
        Fe+2 + 2[H]2[O] = Fe([O][H])2 + 2[H]+ 
        log_k           -20.57
        delta_h 28.565 kcal

#Fe[H]2P[O]4+            120
        Fe+2 + [H]2P[O]4- = Fe[H]2P[O]4+ 
        log_k           2.7
        -gamma  5.4     0.0 

#CaP[O]4-              121
        Ca+2 + P[O]4-3 = CaP[O]4-
        log_k           6.459
        delta_h 3.1 kcal
        -gamma  5.4     0.0 

#Ca[H]2P[O]4+            122
        Ca+2 + [H]2P[O]4- = Ca[H]2P[O]4+
        log_k           1.408
        delta_h 3.4 kcal
        -gamma  5.4     0.0 

#MgP[O]4-              123
        Mg+2 + P[O]4-3 = MgP[O]4-
        log_k           6.589
        delta_h 3.1 kcal
        -gamma  5.4     0.0 

#Mg[H]2P[O]4+            124
        Mg+2 + [H]2P[O]4- = Mg[H]2P[O]4+
        log_k           1.513
        delta_h 3.4 kcal
        -gamma  5.4     0.0 

#Li[S][O]4-              126
        Li+ + [S][O]4-2 = Li[S][O]4-
        log_k           0.64
        -gamma  5.0     0.0 

#[N]2  secondary master species
        2 [N][O]3- + 12 [H]+ + 10 e- = [N]2 + 6 [H]2[O]
        log_k           207.080
        delta_h -312.130 kcal

#[N][H]4 secondary master species 127
        [N][O]3- + 10[H]+ + 8e- = [N][H]4+ + 3[H]2[O] 
        log_k           119.077
        delta_h -187.055 kcal

#Sr[O][H]+               129
        Sr+2 + [H]2[O] = Sr[O][H]+ + [H]+ 
        log_k           -13.29
        -gamma  5.0     0.0

#Ba[O][H]+               130
        Ba+2 + [H]2[O] = Ba[O][H]+ + [H]+ 
        log_k           -13.47
        -gamma  5.0     0.0 

#[N][H]4[S][O]4-             131
        [N][H]4+ + [S][O]4-2 = [N][H]4[S][O]4- 
        log_k           1.11
        -gamma  5.0     0.0

#SrC[O]3               135
        Sr+2 + C[O]3-2 = SrC[O]3 
        log_k           2.81
        delta_h 5.22 kcal
        -analytical     -1.019          0.012826        0.0     0.0     0.0
        -gamma  5.0     0.0

#[O]2Sato              136
#       0.5[H]2[O] = 0.25[O]2(aq) + [H]+ + e- 
#       log_k           -11.385

#C[O]2                 137
#       C[O]2 (g) + [H]2[O] = [H]2C[O]3 
#        -1.468 -4.776  108.38650       0.01985076      -6919.530       -40.45154       -669365.0

#Fe[H]P[O]4              138
        Fe+2 + [H]P[O]4-2 = Fe[H]P[O]4
        log_k           3.6

#Fe[H]P[O]4+             139
        Fe+3 + [H]P[O]4-2 = Fe[H]P[O]4+ 
        log_k           5.43
        delta_h 5.76 kcal
        -gamma  5.5     0.0   

#Fe[H][S][O]4+             148
        Fe+2 + [H][S][O]4- = Fe[H][S][O]4+
        log_k           1.08

#[O]2calc              151
#       0.5[H]2[O] = 0.25[O]2(aq) + [H]+ + e- 
#       log_k           -20.780
#       delta_h 33.457 kcal

#[O][H]-                 152
        [H]2[O] = [O][H]- +  [H]+
        log_k           -14.0
        delta_h 13.362 kcal
        -analytical     -283.971        -0.05069842     13323.0         102.24447       -1119669.0
        -gamma  3.5     0.0 

#Fe[H]2P[O]4+2           156
        Fe+3 + [H]2P[O]4- = Fe[H]2P[O]4+2
        log_k           5.43
        -gamma  5.4     0.0

#Fe[H][S][O]4+2            159
        Fe+3 + [H][S][O]4- = Fe[H][S][O]4+2 
        log_k           2.48

#Ca[F]+                160
        Ca+2 + [F]- = Ca[F]+ 
        log_k           0.94
        delta_h 4.12 kcal
        -gamma  5.5     0.0

#B[F]([O][H])3-            161
        [H]3B[O]3 + [F]- = B[F]([O][H])3-
        log_k           -0.4
        delta_h 1.85 kcal
        -gamma  2.5     0.0

#B[F]2([O][H])2-           162
        [H]3B[O]3 + [H]+ + 2[F]- = B[F]2([O][H])2- + [H]2[O] 
        log_k           7.63
        delta_h 1.618 kcal
        -gamma  2.5     0.0

#B[F]3[O][H]-              163
        [H]3B[O]3 + 2[H]+ + 3[F]- = B[F]3[O][H]- + 2[H]2[O] 
        log_k           13.67
        delta_h -1.614 kcal
        -gamma  2.5     0.0

#B[F]4-                164
        [H]3B[O]3 + 3[H]+ + 4[F]- = B[F]4- + 3[H]2[O] 
        log_k           20.28
        delta_h -1.846 kcal
        -gamma  2.5     0.0

#Fe[F]+2               165
        Fe+3 + [F]- = Fe[F]+2 
        log_k           6.2
        delta_h 2.7 kcal
        -gamma  5.0     0.0

#Fe[F]2+               166
        Fe+3 + 2[F]- = Fe[F]2+
        log_k           10.8
        delta_h 4.8 kcal
        -gamma  5.0     0.0

#Fe[F]3                167
        Fe+3 + 3[F]- = Fe[F]3
        log_k           14.0
        delta_h 5.4 kcal

#Ca[H][S][O]4+             168
        Ca+2 + [H][S][O]4- = Ca[H][S][O]4+ 
        log_k           1.08

#Mn+3 secondary master species   169
        Mn+2 = Mn+3 + e- 
        log_k           -25.51
        delta_h 25.8 kcal
        -gamma  9.0     0.0

#MnCl+               170
        Mn+2 + Cl- = MnCl+ 
        log_k           0.61
        -gamma  5.0     0.0

#MnCl2               171
        Mn+2 + 2Cl- = MnCl2
        log_k           0.25

#MnCl3-              172
        Mn+2 + 3Cl- = MnCl3-
        log_k           -0.31
        -gamma  5.0     0.0

#Mn[O][H]+               173
        Mn+2 + [H]2[O] = Mn[O][H]+ + [H]+ 
        log_k           -10.59
        delta_h 14.4 kcal
        -gamma  5.0     0.0

#Mn([O][H])3-            174
        Mn+2 + 3[H]2[O] = Mn([O][H])3- + 3[H]+ 
        log_k           -34.8
        -gamma  5.0     0.0

#Mn[F]+                175
        Mn+2 + [F]- = Mn[F]+ 
        log_k           0.84
        -gamma  5.0     0.0

#Mn[S][O]4               176
        Mn+2 + [S][O]4-2 = Mn[S][O]4 
        log_k           2.25
        delta_h 3.37 kcal

#Mn([N][O]3)2            177
        Mn+2 + 2[N][O]3- = Mn([N][O]3)2 
        log_k           0.6
        delta_h -0.396 kcal

#Mn[H]C[O]3+             178
        Mn+2 + [H]C[O]3- = Mn[H]C[O]3+
        log_k           1.95
        -gamma  5.0     0.0

#Mn[O]4- secondary master species   179
        Mn+2 + 4[H]2[O] = Mn[O]4- + 8[H]+ + 5e- 
        log_k           -127.824
        delta_h 176.62 kcal
        -gamma  3.0     0.0

#Mn[O]4-2 secondary master species   180
        Mn+2 + 4[H]2[O] = Mn[O]4-2 + 8[H]+ + 4e- 
        log_k           -118.44
        delta_h 150.02 kcal
        -gamma  5.0     0.0

#Si[F]6-2              201
        [H]4Si[O]4 + 4[H]+ + 6[F]- = Si[F]6-2 + 4[H]2[O] 
        log_k           30.18
        delta_h -16.26 kcal
        -gamma  5.0     0.0

#[H][F]                  202
        [H]+ + [F]- = [H][F] 
        log_k           3.18
        delta_h 3.18 kcal
        -analytical     -2.033          0.012645        429.01          0.0     0.0

#[H][F]2-                203
        [H]+ + 2[F]- = [H][F]2- 
        log_k           3.76
        delta_h 4.55 kcal
        -gamma  3.5     0.0

#CuCl2-              206
#       Cu+2 + 2Cl- + e- = CuCl2-
#       log_k           8.220
#       delta_h 1.230 kcal
        Cu+ + 2Cl- = CuCl2-
        log_k           5.50
        delta_h -0.42 kcal
        -gamma  4.0     0.0

#CuCl3-2             207
#       Cu+2 + 3Cl- + e- = CuCl3-2 
#       log_k           8.420
#       delta_h 1.910 kcal
        Cu+ + 3Cl- = CuCl3-2
        log_k           5.70
        delta_h 0.26 kcal
        -gamma  5.0     0.0

#Cu+ secondary master species  208
        Cu+2 + e- = Cu+ 
        log_k           2.72
        delta_h 1.65 kcal
        -gamma  2.5     0.0

#CuC[O]3               209
        Cu+2 + C[O]3-2 = CuC[O]3 
        log_k           6.73

#Cu(C[O]3)2-2          210
        Cu+2 + 2C[O]3-2 = Cu(C[O]3)2-2 
        log_k           9.83

#CuCl+               211
        Cu+2 + Cl- = CuCl+ 
        log_k           0.43
        delta_h 8.65 kcal
        -gamma  4.0     0.0

#CuCl2               212
        Cu+2 + 2Cl- = CuCl2 
        log_k           0.16
        delta_h 10.56 kcal

#CuCl3-              213
        Cu+2 + 3Cl- = CuCl3-
        log_k           -2.29
        delta_h 13.69 kcal
        -gamma  4.0     0.0

#CuCl4-2             214
        Cu+2 + 4Cl- = CuCl4-2
        log_k           -4.59
        delta_h 17.78 kcal
        -gamma  5.0     0.0

#Cu[F]+                215
        Cu+2 + [F]- = Cu[F]+ 
        log_k           1.26
        delta_h 1.62 kcal

#Cu[O][H]+               216
        Cu+2 + [H]2[O] = Cu[O][H]+ + [H]+ 
        log_k           -8.0
        -gamma  4.0     0.0

#Cu([O][H])2             217
        Cu+2 + 2[H]2[O] = Cu([O][H])2 + 2[H]+ 
        log_k           -13.68

#Cu([O][H])3-            218
        Cu+2 + 3[H]2[O] = Cu([O][H])3- + 3[H]+ 
        log_k           -26.9

#Cu([O][H])4-2           219
        Cu+2 + 4[H]2[O] = Cu([O][H])4-2 + 4[H]+ 
        log_k           -39.6

#Cu2([O][H])2+2          220
        2Cu+2 + 2[H]2[O] = Cu2([O][H])2+2 + 2[H]+ 
        log_k           -10.359
        delta_h 17.539 kcal
        -analytical     2.497   0.0     -3833.0         0.0     0.0

#Cu[S][O]4               221
        Cu+2 + [S][O]4-2 = Cu[S][O]4 
        log_k           2.31
        delta_h 1.22 kcal

#Cu([H][S])3-            222
        Cu+2 + 3[H][S]- = Cu([H][S])3-
        log_k           25.9

#ZnCl+               251
        Zn+2 + Cl- = ZnCl+ 
        log_k           0.43
        delta_h 7.79 kcal
        -gamma  4.0     0.0

#ZnCl2               252
        Zn+2 + 2Cl- = ZnCl2
        log_k           0.45
        delta_h 8.5 kcal

#ZnCl3-              253
        Zn+2 + 3Cl- = ZnCl3-
        log_k           0.5
        delta_h 9.56 kcal
        -gamma  4.0     0.0

#ZnCl4-2             254
        Zn+2 + 4Cl- = ZnCl4-2
        log_k           0.2
        delta_h 10.96 kcal